/*---------------------------------------------------------------------------*\
  =========                 |
  \\      /  F ield         | OpenFOAM: The Open Source CFD Toolbox
   \\    /   O peration     | Website:  https://openfoam.org
    \\  /    A nd           | Version:  7
     \\/     M anipulation  |
\*---------------------------------------------------------------------------*/
Build  : 7-49b2b3b8b082
Exec   : icoFoam
Date   : May 14 2021
Time   : 16:51:11
Host   : "c456-041.stampede2.tacc.utexas.edu"
PID    : 159155
I/O    : uncollated
Case   : /work2/06798/steinjd/stampede2/converge/meshA
nProcs : 1
sigFpe : Enabling floating point exception trapping (FOAM_SIGFPE).
fileModificationChecking : Monitoring run-time modified files using timeStampMaster (fileModificationSkew 10)
allowSystemOperations : Allowing user-supplied system call operations

// * * * * * * * * * * * * * * * * * * * * * * * * * * * * * * * * * * * * * //
Create time

Create mesh for time = 25

Reading transportProperties

Reading field p

Reading field U

Reading/calculating face flux field phi


Starting time loop

Time = 25.0025

Courant Number mean: 0.0239394314 max: 0.0396841983
smoothSolver:  Solving for Ux, Initial residual = 4.03964936e-05, Final residual = 3.49092905e-09, No Iterations 1
smoothSolver:  Solving for Uy, Initial residual = 4.17741702e-05, Final residual = 3.50368359e-09, No Iterations 1
smoothSolver:  Solving for Uz, Initial residual = 0.000114427172, Final residual = 1.18650427e-08, No Iterations 1
DICPCG:  Solving for p, Initial residual = 0.000149937718, Final residual = 3.21240401e-06, No Iterations 2
time step continuity errors : sum local = 5.87528333e-10, global = -1.84106038e-20, cumulative = -1.84106038e-20
DICPCG:  Solving for p, Initial residual = 3.27331894e-06, Final residual = 9.12046941e-07, No Iterations 4
time step continuity errors : sum local = 1.74834523e-10, global = -2.32736086e-20, cumulative = -4.16842124e-20
ExecutionTime = 1.89 s  ClockTime = 2 s

Time = 25.005

Courant Number mean: 0.0239385808 max: 0.0396840658
smoothSolver:  Solving for Ux, Initial residual = 4.03548287e-05, Final residual = 3.48598509e-09, No Iterations 1
smoothSolver:  Solving for Uy, Initial residual = 4.17370339e-05, Final residual = 3.49901907e-09, No Iterations 1
smoothSolver:  Solving for Uz, Initial residual = 0.000114256368, Final residual = 1.18494681e-08, No Iterations 1
DICPCG:  Solving for p, Initial residual = 0.000151173883, Final residual = 3.27131435e-06, No Iterations 2
time step continuity errors : sum local = 5.98343676e-10, global = -3.54988855e-20, cumulative = -7.71830979e-20
DICPCG:  Solving for p, Initial residual = 3.31678094e-06, Final residual = 9.98727988e-07, No Iterations 25
time step continuity errors : sum local = 1.89214917e-10, global = -2.21930982e-20, cumulative = -9.93761961e-20
ExecutionTime = 2.16 s  ClockTime = 3 s

Time = 25.0075

Courant Number mean: 0.0239377325 max: 0.0396839312
smoothSolver:  Solving for Ux, Initial residual = 4.03134531e-05, Final residual = 3.48139251e-09, No Iterations 1
smoothSolver:  Solving for Uy, Initial residual = 4.17016456e-05, Final residual = 3.49456679e-09, No Iterations 1
smoothSolver:  Solving for Uz, Initial residual = 0.000114075356, Final residual = 1.18327595e-08, No Iterations 1
DICPCG:  Solving for p, Initial residual = 0.000148179498, Final residual = 3.13208387e-06, No Iterations 2
time step continuity errors : sum local = 5.71109254e-10, global = -1.81751789e-20, cumulative = -1.17551375e-19
DICPCG:  Solving for p, Initial residual = 3.16903002e-06, Final residual = 9.56542353e-07, No Iterations 12
time step continuity errors : sum local = 1.81462574e-10, global = -2.86382113e-20, cumulative = -1.46189586e-19
ExecutionTime = 2.37 s  ClockTime = 3 s

Time = 25.01

Courant Number mean: 0.0239368868 max: 0.0396837941
smoothSolver:  Solving for Ux, Initial residual = 4.02714252e-05, Final residual = 3.47645817e-09, No Iterations 1
smoothSolver:  Solving for Uy, Initial residual = 4.16657885e-05, Final residual = 3.49010743e-09, No Iterations 1
smoothSolver:  Solving for Uz, Initial residual = 0.000113892165, Final residual = 1.1814454e-08, No Iterations 1
DICPCG:  Solving for p, Initial residual = 0.000148174541, Final residual = 3.18071368e-06, No Iterations 2
time step continuity errors : sum local = 5.80269115e-10, global = -2.20292743e-20, cumulative = -1.68218861e-19
DICPCG:  Solving for p, Initial residual = 3.21604435e-06, Final residual = 8.73134113e-07, No Iterations 5
time step continuity errors : sum local = 1.66441839e-10, global = -2.33679548e-20, cumulative = -1.91586815e-19
ExecutionTime = 2.58 s  ClockTime = 3 s

Time = 25.0125

Courant Number mean: 0.0239360437 max: 0.0396836545
smoothSolver:  Solving for Ux, Initial residual = 4.02296533e-05, Final residual = 3.47195687e-09, No Iterations 1
smoothSolver:  Solving for Uy, Initial residual = 4.16303004e-05, Final residual = 3.48573091e-09, No Iterations 1
smoothSolver:  Solving for Uz, Initial residual = 0.000113701792, Final residual = 1.17955309e-08, No Iterations 1
DICPCG:  Solving for p, Initial residual = 0.000147545828, Final residual = 3.15612863e-06, No Iterations 2
time step continuity errors : sum local = 5.75826784e-10, global = -3.62497446e-20, cumulative = -2.2783656e-19
DICPCG:  Solving for p, Initial residual = 3.18378075e-06, Final residual = 9.29993416e-07, No Iterations 7
time step continuity errors : sum local = 1.7646395e-10, global = -1.97430442e-20, cumulative = -2.47579604e-19
ExecutionTime = 2.78 s  ClockTime = 3 s

Time = 25.015

Courant Number mean: 0.0239352033 max: 0.0396835128
smoothSolver:  Solving for Ux, Initial residual = 4.01878006e-05, Final residual = 3.46710233e-09, No Iterations 1
smoothSolver:  Solving for Uy, Initial residual = 4.15938242e-05, Final residual = 3.48123283e-09, No Iterations 1
smoothSolver:  Solving for Uz, Initial residual = 0.000113520811, Final residual = 1.1778381e-08, No Iterations 1
DICPCG:  Solving for p, Initial residual = 0.000148397572, Final residual = 3.10411133e-06, No Iterations 2
time step continuity errors : sum local = 5.66222214e-10, global = -1.41009867e-20, cumulative = -2.61680591e-19
DICPCG:  Solving for p, Initial residual = 3.14168343e-06, Final residual = 9.23952263e-07, No Iterations 12
time step continuity errors : sum local = 1.75524169e-10, global = -3.52714667e-20, cumulative = -2.96952058e-19
ExecutionTime = 3.01 s  ClockTime = 3 s

Time = 25.0175

Courant Number mean: 0.0239343654 max: 0.0396833683
smoothSolver:  Solving for Ux, Initial residual = 4.01470427e-05, Final residual = 3.4626463e-09, No Iterations 1
smoothSolver:  Solving for Uy, Initial residual = 4.1557699e-05, Final residual = 3.47679284e-09, No Iterations 1
smoothSolver:  Solving for Uz, Initial residual = 0.000113323696, Final residual = 1.17587182e-08, No Iterations 1
DICPCG:  Solving for p, Initial residual = 0.000148387248, Final residual = 3.23234915e-06, No Iterations 2
time step continuity errors : sum local = 5.89549787e-10, global = -3.22258204e-20, cumulative = -3.29177878e-19
DICPCG:  Solving for p, Initial residual = 3.25890245e-06, Final residual = 8.29763166e-07, No Iterations 7
time step continuity errors : sum local = 1.58611476e-10, global = -2.84977188e-20, cumulative = -3.57675597e-19
ExecutionTime = 3.2 s  ClockTime = 4 s

Time = 25.02

Courant Number mean: 0.0239335301 max: 0.0396832216
smoothSolver:  Solving for Ux, Initial residual = 4.01051755e-05, Final residual = 3.45789014e-09, No Iterations 1
smoothSolver:  Solving for Uy, Initial residual = 4.15204082e-05, Final residual = 3.47229207e-09, No Iterations 1
smoothSolver:  Solving for Uz, Initial residual = 0.000113131911, Final residual = 1.17392055e-08, No Iterations 1
DICPCG:  Solving for p, Initial residual = 0.000148217013, Final residual = 3.015791e-06, No Iterations 2
time step continuity errors : sum local = 5.505443e-10, global = -3.01551053e-20, cumulative = -3.87830702e-19
DICPCG:  Solving for p, Initial residual = 3.05078103e-06, Final residual = 8.34415658e-07, No Iterations 4
time step continuity errors : sum local = 1.59340623e-10, global = -2.16984744e-20, cumulative = -4.09529177e-19
ExecutionTime = 3.4 s  ClockTime = 4 s

Time = 25.0225

Courant Number mean: 0.0239326973 max: 0.0396831532
smoothSolver:  Solving for Ux, Initial residual = 4.00632599e-05, Final residual = 3.45321066e-09, No Iterations 1
smoothSolver:  Solving for Uy, Initial residual = 4.14848296e-05, Final residual = 3.46798328e-09, No Iterations 1
smoothSolver:  Solving for Uz, Initial residual = 0.000112948239, Final residual = 1.17219636e-08, No Iterations 1
DICPCG:  Solving for p, Initial residual = 0.000148143712, Final residual = 3.06224222e-06, No Iterations 2
time step continuity errors : sum local = 5.58711591e-10, global = -1.59215081e-20, cumulative = -4.25450685e-19
DICPCG:  Solving for p, Initial residual = 3.07851252e-06, Final residual = 9.70139147e-07, No Iterations 9
time step continuity errors : sum local = 1.8374126e-10, global = -2.91096745e-20, cumulative = -4.54560359e-19
ExecutionTime = 3.62 s  ClockTime = 4 s

Time = 25.025

Courant Number mean: 0.0239318671 max: 0.0396831017
smoothSolver:  Solving for Ux, Initial residual = 4.00218509e-05, Final residual = 3.44847562e-09, No Iterations 1
smoothSolver:  Solving for Uy, Initial residual = 4.14475247e-05, Final residual = 3.46356491e-09, No Iterations 1
smoothSolver:  Solving for Uz, Initial residual = 0.000112762819, Final residual = 1.17032986e-08, No Iterations 1
DICPCG:  Solving for p, Initial residual = 0.000147877858, Final residual = 3.28047156e-06, No Iterations 2
time step continuity errors : sum local = 5.98007574e-10, global = -2.10339916e-20, cumulative = -4.75594351e-19
DICPCG:  Solving for p, Initial residual = 3.31999881e-06, Final residual = 8.61884746e-07, No Iterations 12
time step continuity errors : sum local = 1.65119883e-10, global = -1.63945298e-20, cumulative = -4.91988881e-19
ExecutionTime = 3.84 s  ClockTime = 4 s

Time = 25.0275

Courant Number mean: 0.0239310395 max: 0.0396830464
smoothSolver:  Solving for Ux, Initial residual = 3.9980158e-05, Final residual = 3.44379263e-09, No Iterations 1
smoothSolver:  Solving for Uy, Initial residual = 4.14110562e-05, Final residual = 3.4592077e-09, No Iterations 1
smoothSolver:  Solving for Uz, Initial residual = 0.00011258052, Final residual = 1.16861529e-08, No Iterations 1
DICPCG:  Solving for p, Initial residual = 0.000147339006, Final residual = 3.17872757e-06, No Iterations 2
time step continuity errors : sum local = 5.80918233e-10, global = -2.79963618e-20, cumulative = -5.19985242e-19
DICPCG:  Solving for p, Initial residual = 3.1997914e-06, Final residual = 7.99917222e-07, No Iterations 7
time step continuity errors : sum local = 1.54206217e-10, global = -2.94678181e-20, cumulative = -5.4945306e-19
ExecutionTime = 4.04 s  ClockTime = 4 s

Time = 25.03

Courant Number mean: 0.0239302144 max: 0.0396829872
smoothSolver:  Solving for Ux, Initial residual = 3.99383424e-05, Final residual = 3.43914265e-09, No Iterations 1
smoothSolver:  Solving for Uy, Initial residual = 4.13732211e-05, Final residual = 3.45480602e-09, No Iterations 1
smoothSolver:  Solving for Uz, Initial residual = 0.000112392046, Final residual = 1.16667549e-08, No Iterations 1
DICPCG:  Solving for p, Initial residual = 0.000147381948, Final residual = 2.97323221e-06, No Iterations 2
time step continuity errors : sum local = 5.43910346e-10, global = -2.92784208e-20, cumulative = -5.78731481e-19
DICPCG:  Solving for p, Initial residual = 3.01008241e-06, Final residual = 9.19486596e-07, No Iterations 2
time step continuity errors : sum local = 1.75710715e-10, global = -2.96173253e-20, cumulative = -6.08348807e-19
ExecutionTime = 4.23 s  ClockTime = 5 s

Time = 25.0325

Courant Number mean: 0.0239293919 max: 0.0396829245
smoothSolver:  Solving for Ux, Initial residual = 3.98963866e-05, Final residual = 3.43449512e-09, No Iterations 1
smoothSolver:  Solving for Uy, Initial residual = 4.13363045e-05, Final residual = 3.45048286e-09, No Iterations 1
smoothSolver:  Solving for Uz, Initial residual = 0.000112219857, Final residual = 1.16505234e-08, No Iterations 1
DICPCG:  Solving for p, Initial residual = 0.000146861804, Final residual = 3.18526584e-06, No Iterations 2
time step continuity errors : sum local = 5.81894659e-10, global = -3.36266834e-20, cumulative = -6.4197549e-19
DICPCG:  Solving for p, Initial residual = 3.20067934e-06, Final residual = 9.51345339e-07, No Iterations 30
time step continuity errors : sum local = 1.80805978e-10, global = -3.49775401e-20, cumulative = -6.7695303e-19
ExecutionTime = 4.51 s  ClockTime = 5 s

Time = 25.035

Courant Number mean: 0.023928572 max: 0.0396828585
smoothSolver:  Solving for Ux, Initial residual = 3.98532833e-05, Final residual = 3.4298092e-09, No Iterations 1
smoothSolver:  Solving for Uy, Initial residual = 4.12995176e-05, Final residual = 3.44611918e-09, No Iterations 1
smoothSolver:  Solving for Uz, Initial residual = 0.000112020942, Final residual = 1.16312953e-08, No Iterations 1
DICPCG:  Solving for p, Initial residual = 0.000146941741, Final residual = 3.0724246e-06, No Iterations 2
time step continuity errors : sum local = 5.60608187e-10, global = -2.9066934e-20, cumulative = -7.06019964e-19
DICPCG:  Solving for p, Initial residual = 3.11603397e-06, Final residual = 9.06663533e-07, No Iterations 21
time step continuity errors : sum local = 1.71796891e-10, global = -3.05178062e-20, cumulative = -7.3653777e-19
ExecutionTime = 4.76 s  ClockTime = 5 s

Time = 25.0375

Courant Number mean: 0.0239277548 max: 0.0396827884
smoothSolver:  Solving for Ux, Initial residual = 3.98117552e-05, Final residual = 3.42511432e-09, No Iterations 1
smoothSolver:  Solving for Uy, Initial residual = 4.12621185e-05, Final residual = 3.44184584e-09, No Iterations 1
smoothSolver:  Solving for Uz, Initial residual = 0.000111844342, Final residual = 1.16136869e-08, No Iterations 1
DICPCG:  Solving for p, Initial residual = 0.000146868326, Final residual = 3.20152557e-06, No Iterations 2
time step continuity errors : sum local = 5.82453322e-10, global = -1.7792745e-20, cumulative = -7.54330515e-19
DICPCG:  Solving for p, Initial residual = 3.22777793e-06, Final residual = 9.51859271e-07, No Iterations 16
time step continuity errors : sum local = 1.79317416e-10, global = -3.20242902e-20, cumulative = -7.86354805e-19
ExecutionTime = 5 s  ClockTime = 5 s

Time = 25.04

Courant Number mean: 0.0239269403 max: 0.0396827151
smoothSolver:  Solving for Ux, Initial residual = 3.97689564e-05, Final residual = 3.42060687e-09, No Iterations 1
smoothSolver:  Solving for Uy, Initial residual = 4.1224055e-05, Final residual = 3.43749033e-09, No Iterations 1
smoothSolver:  Solving for Uz, Initial residual = 0.000111650004, Final residual = 1.15937955e-08, No Iterations 1
DICPCG:  Solving for p, Initial residual = 0.000147795387, Final residual = 3.3352444e-06, No Iterations 2
time step continuity errors : sum local = 6.06094435e-10, global = -3.52955522e-20, cumulative = -8.21650358e-19
DICPCG:  Solving for p, Initial residual = 3.38587752e-06, Final residual = 9.12479201e-07, No Iterations 11
time step continuity errors : sum local = 1.72707997e-10, global = -2.66785327e-20, cumulative = -8.4832889e-19
ExecutionTime = 5.22 s  ClockTime = 6 s

Time = 25.0425

Courant Number mean: 0.0239261287 max: 0.0396826387
smoothSolver:  Solving for Ux, Initial residual = 3.97276256e-05, Final residual = 3.41580814e-09, No Iterations 1
smoothSolver:  Solving for Uy, Initial residual = 4.11859677e-05, Final residual = 3.43318833e-09, No Iterations 1
smoothSolver:  Solving for Uz, Initial residual = 0.000111460487, Final residual = 1.15778959e-08, No Iterations 1
DICPCG:  Solving for p, Initial residual = 0.000147030237, Final residual = 3.16331874e-06, No Iterations 2
time step continuity errors : sum local = 5.76376445e-10, global = -2.22280622e-20, cumulative = -8.70556953e-19
DICPCG:  Solving for p, Initial residual = 3.20058701e-06, Final residual = 9.37748033e-07, No Iterations 4
time step continuity errors : sum local = 1.77525988e-10, global = -3.18137745e-20, cumulative = -9.02370727e-19
ExecutionTime = 5.41 s  ClockTime = 6 s

Time = 25.045

Courant Number mean: 0.02392532 max: 0.0396825587
smoothSolver:  Solving for Ux, Initial residual = 3.96859641e-05, Final residual = 3.41122106e-09, No Iterations 1
smoothSolver:  Solving for Uy, Initial residual = 4.11484678e-05, Final residual = 3.42901607e-09, No Iterations 1
smoothSolver:  Solving for Uz, Initial residual = 0.00011126953, Final residual = 1.15588468e-08, No Iterations 1
DICPCG:  Solving for p, Initial residual = 0.00014722291, Final residual = 3.31203847e-06, No Iterations 2
time step continuity errors : sum local = 6.03175226e-10, global = -1.63375803e-20, cumulative = -9.18708307e-19
DICPCG:  Solving for p, Initial residual = 3.33526643e-06, Final residual = 9.7509489e-07, No Iterations 12
time step continuity errors : sum local = 1.84439995e-10, global = -1.54497145e-20, cumulative = -9.34158022e-19
ExecutionTime = 5.64 s  ClockTime = 6 s

Time = 25.0475

Courant Number mean: 0.0239245142 max: 0.0396824758
smoothSolver:  Solving for Ux, Initial residual = 3.96436272e-05, Final residual = 3.40651229e-09, No Iterations 1
smoothSolver:  Solving for Uy, Initial residual = 4.11090842e-05, Final residual = 3.42453577e-09, No Iterations 1
smoothSolver:  Solving for Uz, Initial residual = 0.000111096757, Final residual = 1.15437528e-08, No Iterations 1
DICPCG:  Solving for p, Initial residual = 0.000145355853, Final residual = 3.08997168e-06, No Iterations 2
time step continuity errors : sum local = 5.6353285e-10, global = -2.69059239e-20, cumulative = -9.61063946e-19
DICPCG:  Solving for p, Initial residual = 3.12728843e-06, Final residual = 9.03134474e-07, No Iterations 4
time step continuity errors : sum local = 1.71721134e-10, global = -3.03096524e-20, cumulative = -9.91373598e-19
ExecutionTime = 5.83 s  ClockTime = 6 s

Time = 25.05

Courant Number mean: 0.0239237109 max: 0.0396823896
smoothSolver:  Solving for Ux, Initial residual = 3.96012074e-05, Final residual = 3.40195429e-09, No Iterations 1
smoothSolver:  Solving for Uy, Initial residual = 4.1070259e-05, Final residual = 3.42019158e-09, No Iterations 1
smoothSolver:  Solving for Uz, Initial residual = 0.000110908397, Final residual = 1.15262024e-08, No Iterations 1
DICPCG:  Solving for p, Initial residual = 0.000145676453, Final residual = 3.04947055e-06, No Iterations 2
time step continuity errors : sum local = 5.56448934e-10, global = -2.20157975e-20, cumulative = -1.0133894e-18
DICPCG:  Solving for p, Initial residual = 3.07452248e-06, Final residual = 8.57653558e-07, No Iterations 7
time step continuity errors : sum local = 1.64061398e-10, global = -3.14281336e-20, cumulative = -1.04481753e-18
ExecutionTime = 6.04 s  ClockTime = 6 s

Time = 25.0525

Courant Number mean: 0.0239229102 max: 0.0396823003
smoothSolver:  Solving for Ux, Initial residual = 3.95587444e-05, Final residual = 3.39728243e-09, No Iterations 1
smoothSolver:  Solving for Uy, Initial residual = 4.10310013e-05, Final residual = 3.41583755e-09, No Iterations 1
smoothSolver:  Solving for Uz, Initial residual = 0.00011072379, Final residual = 1.15089954e-08, No Iterations 1
DICPCG:  Solving for p, Initial residual = 0.000144582421, Final residual = 2.93904798e-06, No Iterations 2
time step continuity errors : sum local = 5.3727349e-10, global = -2.10129546e-20, cumulative = -1.06583048e-18
DICPCG:  Solving for p, Initial residual = 2.97730152e-06, Final residual = 9.9099665e-07, No Iterations 9
time step continuity errors : sum local = 1.88574002e-10, global = -2.75382143e-20, cumulative = -1.0933687e-18
ExecutionTime = 6.25 s  ClockTime = 7 s

Time = 25.055

Courant Number mean: 0.0239221121 max: 0.0396822068
smoothSolver:  Solving for Ux, Initial residual = 3.95168748e-05, Final residual = 3.39279691e-09, No Iterations 1
smoothSolver:  Solving for Uy, Initial residual = 4.09927708e-05, Final residual = 3.41159169e-09, No Iterations 1
smoothSolver:  Solving for Uz, Initial residual = 0.000110526393, Final residual = 1.14894314e-08, No Iterations 1
DICPCG:  Solving for p, Initial residual = 0.000144623089, Final residual = 3.08850101e-06, No Iterations 2
time step continuity errors : sum local = 5.64733416e-10, global = -3.59841221e-20, cumulative = -1.12935282e-18
DICPCG:  Solving for p, Initial residual = 3.13415313e-06, Final residual = 9.26015923e-07, No Iterations 4
time step continuity errors : sum local = 1.77228276e-10, global = -3.37624375e-20, cumulative = -1.16311526e-18
ExecutionTime = 6.44 s  ClockTime = 7 s

Time = 25.0575

Courant Number mean: 0.0239213166 max: 0.0396821101
smoothSolver:  Solving for Ux, Initial residual = 3.94748818e-05, Final residual = 3.38808039e-09, No Iterations 1
smoothSolver:  Solving for Uy, Initial residual = 4.0953161e-05, Final residual = 3.40728799e-09, No Iterations 1
smoothSolver:  Solving for Uz, Initial residual = 0.000110357041, Final residual = 1.14738963e-08, No Iterations 1
DICPCG:  Solving for p, Initial residual = 0.000145124451, Final residual = 3.08587611e-06, No Iterations 2
time step continuity errors : sum local = 5.64336293e-10, global = -2.55769786e-20, cumulative = -1.18869224e-18
DICPCG:  Solving for p, Initial residual = 3.110161e-06, Final residual = 8.38387312e-07, No Iterations 27
time step continuity errors : sum local = 1.6079745e-10, global = -9.39795577e-21, cumulative = -1.19809019e-18
ExecutionTime = 6.72 s  ClockTime = 7 s

Time = 25.06

Courant Number mean: 0.0239205238 max: 0.0396820112
smoothSolver:  Solving for Ux, Initial residual = 3.94321736e-05, Final residual = 3.38361291e-09, No Iterations 1
smoothSolver:  Solving for Uy, Initial residual = 4.09159613e-05, Final residual = 3.40322091e-09, No Iterations 1
smoothSolver:  Solving for Uz, Initial residual = 0.00011015815, Final residual = 1.14541154e-08, No Iterations 1
DICPCG:  Solving for p, Initial residual = 0.000144395184, Final residual = 3.15932886e-06, No Iterations 2
time step continuity errors : sum local = 5.76151379e-10, global = -1.98173241e-20, cumulative = -1.21790752e-18
DICPCG:  Solving for p, Initial residual = 3.21022907e-06, Final residual = 9.68060512e-07, No Iterations 19
time step continuity errors : sum local = 1.82121455e-10, global = -2.86146639e-20, cumulative = -1.24652218e-18
ExecutionTime = 6.96 s  ClockTime = 7 s

Time = 25.0625

Courant Number mean: 0.0239197341 max: 0.0396819091
smoothSolver:  Solving for Ux, Initial residual = 3.93903007e-05, Final residual = 3.37898728e-09, No Iterations 1
smoothSolver:  Solving for Uy, Initial residual = 4.08760296e-05, Final residual = 3.39894695e-09, No Iterations 1
smoothSolver:  Solving for Uz, Initial residual = 0.000109984064, Final residual = 1.14374407e-08, No Iterations 1
DICPCG:  Solving for p, Initial residual = 0.000145378208, Final residual = 3.37826115e-06, No Iterations 2
time step continuity errors : sum local = 6.12675367e-10, global = -1.52411566e-20, cumulative = -1.26176334e-18
DICPCG:  Solving for p, Initial residual = 3.40511116e-06, Final residual = 9.01776021e-07, No Iterations 15
time step continuity errors : sum local = 1.70664398e-10, global = -3.118029e-20, cumulative = -1.29294363e-18
ExecutionTime = 7.2 s  ClockTime = 8 s

Time = 25.065

Courant Number mean: 0.023918947 max: 0.0396818044
smoothSolver:  Solving for Ux, Initial residual = 3.9348279e-05, Final residual = 3.37456078e-09, No Iterations 1
smoothSolver:  Solving for Uy, Initial residual = 4.08360825e-05, Final residual = 3.39460766e-09, No Iterations 1
smoothSolver:  Solving for Uz, Initial residual = 0.000109788312, Final residual = 1.14175481e-08, No Iterations 1
DICPCG:  Solving for p, Initial residual = 0.000143412685, Final residual = 3.11199372e-06, No Iterations 2
time step continuity errors : sum local = 5.66857665e-10, global = -1.88618892e-20, cumulative = -1.31180552e-18
DICPCG:  Solving for p, Initial residual = 3.15594493e-06, Final residual = 8.45940923e-07, No Iterations 10
time step continuity errors : sum local = 1.60550936e-10, global = -2.25353169e-20, cumulative = -1.33434083e-18
ExecutionTime = 7.41 s  ClockTime = 8 s

Time = 25.0675

Courant Number mean: 0.0239181626 max: 0.0396816972
smoothSolver:  Solving for Ux, Initial residual = 3.93059205e-05, Final residual = 3.36996637e-09, No Iterations 1
smoothSolver:  Solving for Uy, Initial residual = 4.0795646e-05, Final residual = 3.39030484e-09, No Iterations 1
smoothSolver:  Solving for Uz, Initial residual = 0.000109619047, Final residual = 1.1402654e-08, No Iterations 1
DICPCG:  Solving for p, Initial residual = 0.000143658159, Final residual = 3.08124517e-06, No Iterations 2
time step continuity errors : sum local = 5.6085444e-10, global = -2.11092259e-20, cumulative = -1.35545006e-18
DICPCG:  Solving for p, Initial residual = 3.12305005e-06, Final residual = 9.6784688e-07, No Iterations 4
time step continuity errors : sum local = 1.82304506e-10, global = -1.1926816e-20, cumulative = -1.36737687e-18
ExecutionTime = 7.61 s  ClockTime = 8 s

Time = 25.07

Courant Number mean: 0.0239173809 max: 0.039681587
smoothSolver:  Solving for Ux, Initial residual = 3.9262562e-05, Final residual = 3.36552889e-09, No Iterations 1
smoothSolver:  Solving for Uy, Initial residual = 4.07567201e-05, Final residual = 3.38614364e-09, No Iterations 1
smoothSolver:  Solving for Uz, Initial residual = 0.000109430735, Final residual = 1.1383509e-08, No Iterations 1
DICPCG:  Solving for p, Initial residual = 0.000143607564, Final residual = 3.01755148e-06, No Iterations 2
time step continuity errors : sum local = 5.49378795e-10, global = -3.47829773e-20, cumulative = -1.40215985e-18
DICPCG:  Solving for p, Initial residual = 3.04899466e-06, Final residual = 8.85011304e-07, No Iterations 10
time step continuity errors : sum local = 1.67968558e-10, global = -3.00853863e-20, cumulative = -1.43224524e-18
ExecutionTime = 7.82 s  ClockTime = 8 s

Time = 25.0725

Courant Number mean: 0.023916602 max: 0.0396814742
smoothSolver:  Solving for Ux, Initial residual = 3.92197687e-05, Final residual = 3.36095123e-09, No Iterations 1
smoothSolver:  Solving for Uy, Initial residual = 4.07162059e-05, Final residual = 3.38188549e-09, No Iterations 1
smoothSolver:  Solving for Uz, Initial residual = 0.000109251043, Final residual = 1.13655549e-08, No Iterations 1
DICPCG:  Solving for p, Initial residual = 0.000141861099, Final residual = 3.17624696e-06, No Iterations 2
time step continuity errors : sum local = 5.78648418e-10, global = -2.30776217e-20, cumulative = -1.45532286e-18
DICPCG:  Solving for p, Initial residual = 3.21182124e-06, Final residual = 8.81323975e-07, No Iterations 5
time step continuity errors : sum local = 1.67705595e-10, global = -2.4297247e-20, cumulative = -1.47962011e-18
ExecutionTime = 8.01 s  ClockTime = 8 s

Time = 25.075

Courant Number mean: 0.0239158257 max: 0.0396813585
smoothSolver:  Solving for Ux, Initial residual = 3.91766745e-05, Final residual = 3.35659148e-09, No Iterations 1
smoothSolver:  Solving for Uy, Initial residual = 4.06767035e-05, Final residual = 3.37777081e-09, No Iterations 1
smoothSolver:  Solving for Uz, Initial residual = 0.000109062666, Final residual = 1.13470335e-08, No Iterations 1
DICPCG:  Solving for p, Initial residual = 0.000142300573, Final residual = 2.96910435e-06, No Iterations 2
time step continuity errors : sum local = 5.41828549e-10, global = -3.49480203e-20, cumulative = -1.51456813e-18
DICPCG:  Solving for p, Initial residual = 2.9967572e-06, Final residual = 8.39829514e-07, No Iterations 7
time step continuity errors : sum local = 1.60422819e-10, global = -1.35811205e-20, cumulative = -1.52814925e-18
ExecutionTime = 8.22 s  ClockTime = 9 s

Time = 25.0775

Courant Number mean: 0.0239150522 max: 0.0396812404
smoothSolver:  Solving for Ux, Initial residual = 3.91326643e-05, Final residual = 3.35192887e-09, No Iterations 1
smoothSolver:  Solving for Uy, Initial residual = 4.06363223e-05, Final residual = 3.37356273e-09, No Iterations 1
smoothSolver:  Solving for Uz, Initial residual = 0.0001088858, Final residual = 1.13317696e-08, No Iterations 1
DICPCG:  Solving for p, Initial residual = 0.000142855049, Final residual = 2.94974363e-06, No Iterations 2
time step continuity errors : sum local = 5.3834674e-10, global = -3.04484937e-20, cumulative = -1.55859774e-18
DICPCG:  Solving for p, Initial residual = 2.98939094e-06, Final residual = 9.51714709e-07, No Iterations 4
time step continuity errors : sum local = 1.80531007e-10, global = -3.53995325e-20, cumulative = -1.59399727e-18
ExecutionTime = 8.41 s  ClockTime = 9 s

Time = 25.08

Courant Number mean: 0.0239142814 max: 0.0396811193
smoothSolver:  Solving for Ux, Initial residual = 3.90890522e-05, Final residual = 3.34759793e-09, No Iterations 1
smoothSolver:  Solving for Uy, Initial residual = 4.0596671e-05, Final residual = 3.36944671e-09, No Iterations 1
smoothSolver:  Solving for Uz, Initial residual = 0.000108693405, Final residual = 1.13125088e-08, No Iterations 1
DICPCG:  Solving for p, Initial residual = 0.000142403621, Final residual = 2.98230353e-06, No Iterations 2
time step continuity errors : sum local = 5.44193907e-10, global = -2.35058356e-20, cumulative = -1.61750311e-18
DICPCG:  Solving for p, Initial residual = 2.99434628e-06, Final residual = 8.28674785e-07, No Iterations 15
time step continuity errors : sum local = 1.59128981e-10, global = -3.82995584e-20, cumulative = -1.65580267e-18
ExecutionTime = 8.65 s  ClockTime = 9 s

Time = 25.0825

Courant Number mean: 0.0239135134 max: 0.039680996
smoothSolver:  Solving for Ux, Initial residual = 3.90450381e-05, Final residual = 3.34301703e-09, No Iterations 1
smoothSolver:  Solving for Uy, Initial residual = 4.05561303e-05, Final residual = 3.36520692e-09, No Iterations 1
smoothSolver:  Solving for Uz, Initial residual = 0.000108510739, Final residual = 1.12941606e-08, No Iterations 1
DICPCG:  Solving for p, Initial residual = 0.000140367109, Final residual = 2.95727703e-06, No Iterations 2
time step continuity errors : sum local = 5.40636349e-10, global = -2.30305475e-20, cumulative = -1.67883322e-18
DICPCG:  Solving for p, Initial residual = 2.99653036e-06, Final residual = 9.78515635e-07, No Iterations 28
time step continuity errors : sum local = 1.84400053e-10, global = -1.75641519e-20, cumulative = -1.69639737e-18
ExecutionTime = 8.93 s  ClockTime = 9 s

Time = 25.085

Courant Number mean: 0.0239127481 max: 0.03968087
smoothSolver:  Solving for Ux, Initial residual = 3.90010193e-05, Final residual = 3.33869714e-09, No Iterations 1
smoothSolver:  Solving for Uy, Initial residual = 4.05166098e-05, Final residual = 3.36115495e-09, No Iterations 1
smoothSolver:  Solving for Uz, Initial residual = 0.000108326972, Final residual = 1.12758665e-08, No Iterations 1
DICPCG:  Solving for p, Initial residual = 0.000140854183, Final residual = 3.00724452e-06, No Iterations 2
time step continuity errors : sum local = 5.4668485e-10, global = -2.59323573e-20, cumulative = -1.72232972e-18
DICPCG:  Solving for p, Initial residual = 3.02675867e-06, Final residual = 9.73524994e-07, No Iterations 9
time step continuity errors : sum local = 1.82864892e-10, global = -2.94166375e-20, cumulative = -1.75174636e-18
ExecutionTime = 9.13 s  ClockTime = 10 s

Time = 25.0875

Courant Number mean: 0.0239119858 max: 0.0396807417
smoothSolver:  Solving for Ux, Initial residual = 3.89568174e-05, Final residual = 3.33414652e-09, No Iterations 1
smoothSolver:  Solving for Uy, Initial residual = 4.04760642e-05, Final residual = 3.35700809e-09, No Iterations 1
smoothSolver:  Solving for Uz, Initial residual = 0.000108148304, Final residual = 1.12590516e-08, No Iterations 1
DICPCG:  Solving for p, Initial residual = 0.000141160395, Final residual = 2.92313048e-06, No Iterations 2
time step continuity errors : sum local = 5.31487362e-10, global = -3.203894e-20, cumulative = -1.7837853e-18
DICPCG:  Solving for p, Initial residual = 2.95621306e-06, Final residual = 9.81156746e-07, No Iterations 7
time step continuity errors : sum local = 1.83648349e-10, global = -2.34946346e-20, cumulative = -1.80727994e-18
ExecutionTime = 9.34 s  ClockTime = 10 s

Time = 25.09

Courant Number mean: 0.023911226 max: 0.0396806109
smoothSolver:  Solving for Ux, Initial residual = 3.89133836e-05, Final residual = 3.32981292e-09, No Iterations 1
smoothSolver:  Solving for Uy, Initial residual = 4.04351266e-05, Final residual = 3.35284688e-09, No Iterations 1
smoothSolver:  Solving for Uz, Initial residual = 0.000107960833, Final residual = 1.12390888e-08, No Iterations 1
DICPCG:  Solving for p, Initial residual = 0.000140178325, Final residual = 2.94722447e-06, No Iterations 2
time step continuity errors : sum local = 5.35325664e-10, global = -2.0925402e-20, cumulative = -1.82820534e-18
DICPCG:  Solving for p, Initial residual = 2.96258985e-06, Final residual = 7.93421558e-07, No Iterations 27
time step continuity errors : sum local = 1.51234885e-10, global = -3.41719135e-20, cumulative = -1.86237725e-18
ExecutionTime = 9.62 s  ClockTime = 10 s

Time = 25.0925

Courant Number mean: 0.0239104689 max: 0.0396804773
smoothSolver:  Solving for Ux, Initial residual = 3.88702744e-05, Final residual = 3.32536093e-09, No Iterations 1
smoothSolver:  Solving for Uy, Initial residual = 4.03935993e-05, Final residual = 3.34869364e-09, No Iterations 1
smoothSolver:  Solving for Uz, Initial residual = 0.000107778664, Final residual = 1.12214154e-08, No Iterations 1
DICPCG:  Solving for p, Initial residual = 0.000139244441, Final residual = 2.89429256e-06, No Iterations 2
time step continuity errors : sum local = 5.28080358e-10, global = -3.00192398e-20, cumulative = -1.89239649e-18
DICPCG:  Solving for p, Initial residual = 2.91684149e-06, Final residual = 9.77450249e-07, No Iterations 7
time step continuity errors : sum local = 1.84775018e-10, global = -2.43016284e-20, cumulative = -1.91669812e-18
ExecutionTime = 9.82 s  ClockTime = 10 s

Time = 25.095

Courant Number mean: 0.0239097143 max: 0.0396803416
smoothSolver:  Solving for Ux, Initial residual = 3.88264244e-05, Final residual = 3.32108477e-09, No Iterations 1
smoothSolver:  Solving for Uy, Initial residual = 4.03523668e-05, Final residual = 3.34456971e-09, No Iterations 1
smoothSolver:  Solving for Uz, Initial residual = 0.000107596521, Final residual = 1.12027083e-08, No Iterations 1
DICPCG:  Solving for p, Initial residual = 0.000139690472, Final residual = 2.8914689e-06, No Iterations 2
time step continuity errors : sum local = 5.27762021e-10, global = -2.73485288e-20, cumulative = -1.94404665e-18
DICPCG:  Solving for p, Initial residual = 2.91639573e-06, Final residual = 7.05875386e-07, No Iterations 27
time step continuity errors : sum local = 1.34784668e-10, global = -3.35473226e-20, cumulative = -1.97759397e-18
ExecutionTime = 10.09 s  ClockTime = 10 s

Time = 25.0975

Courant Number mean: 0.0239089623 max: 0.039680203
smoothSolver:  Solving for Ux, Initial residual = 3.87818999e-05, Final residual = 3.31664227e-09, No Iterations 1
smoothSolver:  Solving for Uy, Initial residual = 4.03110583e-05, Final residual = 3.34044668e-09, No Iterations 1
smoothSolver:  Solving for Uz, Initial residual = 0.000107419049, Final residual = 1.11877918e-08, No Iterations 1
DICPCG:  Solving for p, Initial residual = 0.000139647424, Final residual = 2.94959194e-06, No Iterations 2
time step continuity errors : sum local = 5.35597848e-10, global = -1.99457729e-20, cumulative = -1.99753974e-18
DICPCG:  Solving for p, Initial residual = 2.96886738e-06, Final residual = 8.5658304e-07, No Iterations 17
time step continuity errors : sum local = 1.62041297e-10, global = -2.79523734e-20, cumulative = -2.02549212e-18
ExecutionTime = 10.33 s  ClockTime = 11 s

Time = 25.1

Courant Number mean: 0.0239082129 max: 0.0396800626
smoothSolver:  Solving for Ux, Initial residual = 3.87380057e-05, Final residual = 3.31234836e-09, No Iterations 1
smoothSolver:  Solving for Uy, Initial residual = 4.02699174e-05, Final residual = 3.33636166e-09, No Iterations 1
smoothSolver:  Solving for Uz, Initial residual = 0.00010723751, Final residual = 1.11681009e-08, No Iterations 1
DICPCG:  Solving for p, Initial residual = 0.000138912681, Final residual = 2.94897429e-06, No Iterations 2
time step continuity errors : sum local = 5.36708168e-10, global = -2.60943647e-20, cumulative = -2.05158648e-18
DICPCG:  Solving for p, Initial residual = 2.96869201e-06, Final residual = 7.69846915e-07, No Iterations 7
time step continuity errors : sum local = 1.46118201e-10, global = -3.30016102e-20, cumulative = -2.08458809e-18
ExecutionTime = 10.54 s  ClockTime = 11 s

Time = 25.1025

Courant Number mean: 0.0239074661 max: 0.0396799199
smoothSolver:  Solving for Ux, Initial residual = 3.8693464e-05, Final residual = 3.30794405e-09, No Iterations 1
smoothSolver:  Solving for Uy, Initial residual = 4.02281107e-05, Final residual = 3.33227839e-09, No Iterations 1
smoothSolver:  Solving for Uz, Initial residual = 0.000107057498, Final residual = 1.11501065e-08, No Iterations 1
DICPCG:  Solving for p, Initial residual = 0.000139198068, Final residual = 2.79117439e-06, No Iterations 2
time step continuity errors : sum local = 5.07666033e-10, global = -2.11025119e-20, cumulative = -2.10569061e-18
DICPCG:  Solving for p, Initial residual = 2.82118585e-06, Final residual = 8.82102376e-07, No Iterations 2
time step continuity errors : sum local = 1.65885869e-10, global = -2.36464405e-20, cumulative = -2.12933705e-18
ExecutionTime = 10.72 s  ClockTime = 11 s

Time = 25.105

Courant Number mean: 0.0239067219 max: 0.0396797746
smoothSolver:  Solving for Ux, Initial residual = 3.86487897e-05, Final residual = 3.30366903e-09, No Iterations 1
smoothSolver:  Solving for Uy, Initial residual = 4.01868262e-05, Final residual = 3.3282476e-09, No Iterations 1
smoothSolver:  Solving for Uz, Initial residual = 0.000106877295, Final residual = 1.11326215e-08, No Iterations 1
DICPCG:  Solving for p, Initial residual = 0.000138879801, Final residual = 3.05462039e-06, No Iterations 2
time step continuity errors : sum local = 5.54512144e-10, global = -1.82854856e-20, cumulative = -2.14762253e-18
DICPCG:  Solving for p, Initial residual = 3.05850588e-06, Final residual = 8.94593328e-07, No Iterations 16
time step continuity errors : sum local = 1.67863809e-10, global = -2.47027512e-20, cumulative = -2.17232528e-18
ExecutionTime = 10.97 s  ClockTime = 11 s

Time = 25.1075

Courant Number mean: 0.0239059804 max: 0.0396796263
smoothSolver:  Solving for Ux, Initial residual = 3.86038665e-05, Final residual = 3.29927932e-09, No Iterations 1
smoothSolver:  Solving for Uy, Initial residual = 4.01451513e-05, Final residual = 3.32422144e-09, No Iterations 1
smoothSolver:  Solving for Uz, Initial residual = 0.000106688955, Final residual = 1.11123395e-08, No Iterations 1
DICPCG:  Solving for p, Initial residual = 0.000138299747, Final residual = 2.89148612e-06, No Iterations 2
time step continuity errors : sum local = 5.25117859e-10, global = -2.15439273e-20, cumulative = -2.19386921e-18
DICPCG:  Solving for p, Initial residual = 2.92292575e-06, Final residual = 8.63738524e-07, No Iterations 5
time step continuity errors : sum local = 1.62244485e-10, global = -2.78436082e-20, cumulative = -2.22171282e-18
ExecutionTime = 11.16 s  ClockTime = 12 s

Time = 25.11

Courant Number mean: 0.0239052419 max: 0.0396794763
smoothSolver:  Solving for Ux, Initial residual = 3.85587329e-05, Final residual = 3.29498018e-09, No Iterations 1
smoothSolver:  Solving for Uy, Initial residual = 4.01034196e-05, Final residual = 3.32025757e-09, No Iterations 1
smoothSolver:  Solving for Uz, Initial residual = 0.000106509949, Final residual = 1.10946654e-08, No Iterations 1
DICPCG:  Solving for p, Initial residual = 0.000138863211, Final residual = 3.05796011e-06, No Iterations 2
time step continuity errors : sum local = 5.54857724e-10, global = -1.5825216e-20, cumulative = -2.23753803e-18
DICPCG:  Solving for p, Initial residual = 3.08935678e-06, Final residual = 9.08498903e-07, No Iterations 5
time step continuity errors : sum local = 1.70023871e-10, global = -2.39966222e-20, cumulative = -2.26153466e-18
ExecutionTime = 11.36 s  ClockTime = 12 s

Time = 25.1125

Courant Number mean: 0.0239045059 max: 0.0396793238
smoothSolver:  Solving for Ux, Initial residual = 3.85137473e-05, Final residual = 3.29067834e-09, No Iterations 1
smoothSolver:  Solving for Uy, Initial residual = 4.00600903e-05, Final residual = 3.31603354e-09, No Iterations 1
smoothSolver:  Solving for Uz, Initial residual = 0.000106340797, Final residual = 1.10781623e-08, No Iterations 1
DICPCG:  Solving for p, Initial residual = 0.000138143723, Final residual = 2.92641129e-06, No Iterations 2
time step continuity errors : sum local = 5.31031114e-10, global = -2.6277925e-20, cumulative = -2.28781258e-18
DICPCG:  Solving for p, Initial residual = 2.93610466e-06, Final residual = 8.48745063e-07, No Iterations 7
time step continuity errors : sum local = 1.59434283e-10, global = -3.9519551e-20, cumulative = -2.32733213e-18
ExecutionTime = 11.56 s  ClockTime = 12 s

Time = 25.115

Courant Number mean: 0.0239037729 max: 0.0396791695
smoothSolver:  Solving for Ux, Initial residual = 3.8468634e-05, Final residual = 3.28634879e-09, No Iterations 1
smoothSolver:  Solving for Uy, Initial residual = 4.00172969e-05, Final residual = 3.31192626e-09, No Iterations 1
smoothSolver:  Solving for Uz, Initial residual = 0.000106162976, Final residual = 1.1060058e-08, No Iterations 1
DICPCG:  Solving for p, Initial residual = 0.000140132659, Final residual = 3.03834053e-06, No Iterations 2
time step continuity errors : sum local = 5.5133001e-10, global = -2.28958068e-20, cumulative = -2.35022794e-18
DICPCG:  Solving for p, Initial residual = 3.07771957e-06, Final residual = 9.66251937e-07, No Iterations 10
time step continuity errors : sum local = 1.81400271e-10, global = -2.19541849e-20, cumulative = -2.37218212e-18
ExecutionTime = 11.78 s  ClockTime = 12 s

Time = 25.1175

Courant Number mean: 0.0239030428 max: 0.0396790129
smoothSolver:  Solving for Ux, Initial residual = 3.84239263e-05, Final residual = 3.2821658e-09, No Iterations 1
smoothSolver:  Solving for Uy, Initial residual = 3.99751236e-05, Final residual = 3.30787047e-09, No Iterations 1
smoothSolver:  Solving for Uz, Initial residual = 0.000105989742, Final residual = 1.10438717e-08, No Iterations 1
DICPCG:  Solving for p, Initial residual = 0.000138655304, Final residual = 3.11182798e-06, No Iterations 2
time step continuity errors : sum local = 5.65904185e-10, global = -3.21307499e-20, cumulative = -2.40431287e-18
DICPCG:  Solving for p, Initial residual = 3.14652528e-06, Final residual = 9.854556e-07, No Iterations 5
time step continuity errors : sum local = 1.85372738e-10, global = -3.12201816e-20, cumulative = -2.43553306e-18
ExecutionTime = 11.98 s  ClockTime = 12 s

Time = 25.12

Courant Number mean: 0.0239023156 max: 0.0396788537
smoothSolver:  Solving for Ux, Initial residual = 3.83779071e-05, Final residual = 3.27773246e-09, No Iterations 1
smoothSolver:  Solving for Uy, Initial residual = 3.99318442e-05, Final residual = 3.30379299e-09, No Iterations 1
smoothSolver:  Solving for Uz, Initial residual = 0.000105815924, Final residual = 1.10259028e-08, No Iterations 1
DICPCG:  Solving for p, Initial residual = 0.000138282205, Final residual = 3.08483811e-06, No Iterations 2
time step continuity errors : sum local = 5.61354631e-10, global = -3.70754035e-20, cumulative = -2.47260846e-18
DICPCG:  Solving for p, Initial residual = 3.11869969e-06, Final residual = 9.98240528e-07, No Iterations 26
time step continuity errors : sum local = 1.86885914e-10, global = -2.95762732e-20, cumulative = -2.50218473e-18
ExecutionTime = 12.24 s  ClockTime = 13 s

Time = 25.1225

Courant Number mean: 0.0239015912 max: 0.0396786931
smoothSolver:  Solving for Ux, Initial residual = 3.83328372e-05, Final residual = 3.27354648e-09, No Iterations 1
smoothSolver:  Solving for Uy, Initial residual = 3.98897099e-05, Final residual = 3.29981475e-09, No Iterations 1
smoothSolver:  Solving for Uz, Initial residual = 0.0001056419, Final residual = 1.10094956e-08, No Iterations 1
DICPCG:  Solving for p, Initial residual = 0.000138597128, Final residual = 3.09884711e-06, No Iterations 2
time step continuity errors : sum local = 5.62255971e-10, global = -1.30902229e-20, cumulative = -2.51527496e-18
DICPCG:  Solving for p, Initial residual = 3.13530006e-06, Final residual = 8.2856662e-07, No Iterations 17
time step continuity errors : sum local = 1.55950703e-10, global = -8.55004422e-21, cumulative = -2.523825e-18
ExecutionTime = 12.49 s  ClockTime = 13 s

Time = 25.125

Courant Number mean: 0.0239008697 max: 0.0396785302
smoothSolver:  Solving for Ux, Initial residual = 3.82865733e-05, Final residual = 3.26927255e-09, No Iterations 1
smoothSolver:  Solving for Uy, Initial residual = 3.98471332e-05, Final residual = 3.29586836e-09, No Iterations 1
smoothSolver:  Solving for Uz, Initial residual = 0.000105465203, Final residual = 1.09899663e-08, No Iterations 1
DICPCG:  Solving for p, Initial residual = 0.000138314745, Final residual = 3.01077359e-06, No Iterations 2
time step continuity errors : sum local = 5.45987764e-10, global = -3.49075453e-20, cumulative = -2.55873254e-18
DICPCG:  Solving for p, Initial residual = 3.04279125e-06, Final residual = 8.49476129e-07, No Iterations 7
time step continuity errors : sum local = 1.58984452e-10, global = -2.71005459e-20, cumulative = -2.58583309e-18
ExecutionTime = 12.7 s  ClockTime = 13 s

Time = 25.1275

Courant Number mean: 0.0239001507 max: 0.0396783651
smoothSolver:  Solving for Ux, Initial residual = 3.82411617e-05, Final residual = 3.26515134e-09, No Iterations 1
smoothSolver:  Solving for Uy, Initial residual = 3.98042567e-05, Final residual = 3.29197033e-09, No Iterations 1
smoothSolver:  Solving for Uz, Initial residual = 0.000105289086, Final residual = 1.09720822e-08, No Iterations 1
DICPCG:  Solving for p, Initial residual = 0.000137980658, Final residual = 2.87591045e-06, No Iterations 2
time step continuity errors : sum local = 5.21119262e-10, global = -3.1751489e-20, cumulative = -2.61758458e-18
DICPCG:  Solving for p, Initial residual = 2.91664131e-06, Final residual = 9.05079063e-07, No Iterations 2
time step continuity errors : sum local = 1.68458568e-10, global = -1.96836881e-20, cumulative = -2.63726827e-18
ExecutionTime = 12.88 s  ClockTime = 13 s

Time = 25.13

Courant Number mean: 0.0238994344 max: 0.0396781978
smoothSolver:  Solving for Ux, Initial residual = 3.81945144e-05, Final residual = 3.26078819e-09, No Iterations 1
smoothSolver:  Solving for Uy, Initial residual = 3.97618842e-05, Final residual = 3.28803672e-09, No Iterations 1
smoothSolver:  Solving for Uz, Initial residual = 0.000105115726, Final residual = 1.09550996e-08, No Iterations 1
DICPCG:  Solving for p, Initial residual = 0.000137481687, Final residual = 3.150639e-06, No Iterations 2
time step continuity errors : sum local = 5.69926517e-10, global = -3.03300084e-20, cumulative = -2.66759828e-18
DICPCG:  Solving for p, Initial residual = 3.16476236e-06, Final residual = 9.5155738e-07, No Iterations 27
time step continuity errors : sum local = 1.77428357e-10, global = -1.84902055e-20, cumulative = -2.68608848e-18
ExecutionTime = 13.15 s  ClockTime = 14 s

Time = 25.1325

Courant Number mean: 0.0238987206 max: 0.0396780284
smoothSolver:  Solving for Ux, Initial residual = 3.81503686e-05, Final residual = 3.2566333e-09, No Iterations 1
smoothSolver:  Solving for Uy, Initial residual = 3.97175875e-05, Final residual = 3.28409023e-09, No Iterations 1
smoothSolver:  Solving for Uz, Initial residual = 0.000104938641, Final residual = 1.09361458e-08, No Iterations 1
DICPCG:  Solving for p, Initial residual = 0.000137803763, Final residual = 3.12794023e-06, No Iterations 2
time step continuity errors : sum local = 5.67216539e-10, global = -1.85899599e-20, cumulative = -2.70467844e-18
DICPCG:  Solving for p, Initial residual = 3.18485533e-06, Final residual = 9.07000687e-07, No Iterations 16
time step continuity errors : sum local = 1.7031609e-10, global = -3.71197558e-20, cumulative = -2.7417982e-18
ExecutionTime = 13.39 s  ClockTime = 14 s

Time = 25.135

Courant Number mean: 0.0238980094 max: 0.0396778571
smoothSolver:  Solving for Ux, Initial residual = 3.81030548e-05, Final residual = 3.25236732e-09, No Iterations 1
smoothSolver:  Solving for Uy, Initial residual = 3.96748532e-05, Final residual = 3.28015274e-09, No Iterations 1
smoothSolver:  Solving for Uz, Initial residual = 0.000104765167, Final residual = 1.0918941e-08, No Iterations 1
DICPCG:  Solving for p, Initial residual = 0.000136992801, Final residual = 3.08832351e-06, No Iterations 2
time step continuity errors : sum local = 5.61021728e-10, global = -2.3541209e-20, cumulative = -2.76533941e-18
DICPCG:  Solving for p, Initial residual = 3.11432883e-06, Final residual = 9.55488301e-07, No Iterations 10
time step continuity errors : sum local = 1.79119879e-10, global = -3.07421086e-20, cumulative = -2.79608151e-18
ExecutionTime = 13.6 s  ClockTime = 14 s

Time = 25.1375

Courant Number mean: 0.0238973006 max: 0.0396776837
smoothSolver:  Solving for Ux, Initial residual = 3.80570291e-05, Final residual = 3.24828113e-09, No Iterations 1
smoothSolver:  Solving for Uy, Initial residual = 3.96316323e-05, Final residual = 3.27639486e-09, No Iterations 1
smoothSolver:  Solving for Uz, Initial residual = 0.000104590038, Final residual = 1.09009151e-08, No Iterations 1
DICPCG:  Solving for p, Initial residual = 0.000137089119, Final residual = 3.1368029e-06, No Iterations 2
time step continuity errors : sum local = 5.69401706e-10, global = -2.40313185e-20, cumulative = -2.82011283e-18
DICPCG:  Solving for p, Initial residual = 3.18251173e-06, Final residual = 8.45952692e-07, No Iterations 30
time step continuity errors : sum local = 1.58098013e-10, global = -2.36100454e-20, cumulative = -2.84372288e-18
ExecutionTime = 13.89 s  ClockTime = 14 s

Time = 25.14

Courant Number mean: 0.0238965944 max: 0.0396775137
smoothSolver:  Solving for Ux, Initial residual = 3.80102293e-05, Final residual = 3.24390042e-09, No Iterations 1
smoothSolver:  Solving for Uy, Initial residual = 3.9588604e-05, Final residual = 3.27246702e-09, No Iterations 1
smoothSolver:  Solving for Uz, Initial residual = 0.000104412429, Final residual = 1.08834225e-08, No Iterations 1
DICPCG:  Solving for p, Initial residual = 0.000137613887, Final residual = 3.07865992e-06, No Iterations 2
time step continuity errors : sum local = 5.56619855e-10, global = -2.76059098e-20, cumulative = -2.87132879e-18
DICPCG:  Solving for p, Initial residual = 3.11570686e-06, Final residual = 8.20129838e-07, No Iterations 7
time step continuity errors : sum local = 1.52661333e-10, global = -2.75252217e-20, cumulative = -2.89885401e-18
ExecutionTime = 14.09 s  ClockTime = 15 s

Time = 25.1425

Courant Number mean: 0.0238958908 max: 0.0396774255
smoothSolver:  Solving for Ux, Initial residual = 3.79634912e-05, Final residual = 3.23988698e-09, No Iterations 1
smoothSolver:  Solving for Uy, Initial residual = 3.95450063e-05, Final residual = 3.26864414e-09, No Iterations 1
smoothSolver:  Solving for Uz, Initial residual = 0.000104244053, Final residual = 1.08653832e-08, No Iterations 1
DICPCG:  Solving for p, Initial residual = 0.000137230488, Final residual = 2.93969361e-06, No Iterations 2
time step continuity errors : sum local = 5.31290372e-10, global = -2.26435044e-20, cumulative = -2.92149751e-18
DICPCG:  Solving for p, Initial residual = 2.98553541e-06, Final residual = 9.91628741e-07, No Iterations 15
time step continuity errors : sum local = 1.83701767e-10, global = -2.38773086e-20, cumulative = -2.94537482e-18
ExecutionTime = 14.32 s  ClockTime = 15 s

Time = 25.145

Courant Number mean: 0.0238951899 max: 0.0396773342
smoothSolver:  Solving for Ux, Initial residual = 3.7915462e-05, Final residual = 3.23559954e-09, No Iterations 1
smoothSolver:  Solving for Uy, Initial residual = 3.95012284e-05, Final residual = 3.2646935e-09, No Iterations 1
smoothSolver:  Solving for Uz, Initial residual = 0.00010406571, Final residual = 1.08474075e-08, No Iterations 1
DICPCG:  Solving for p, Initial residual = 0.000136574289, Final residual = 3.12727436e-06, No Iterations 2
time step continuity errors : sum local = 5.65919707e-10, global = -2.49483991e-20, cumulative = -2.97032322e-18
DICPCG:  Solving for p, Initial residual = 3.16935852e-06, Final residual = 8.70835763e-07, No Iterations 15
time step continuity errors : sum local = 1.61219726e-10, global = -2.22471462e-20, cumulative = -2.99257037e-18
ExecutionTime = 14.56 s  ClockTime = 15 s

Time = 25.1475

Courant Number mean: 0.0238944917 max: 0.0396772392
smoothSolver:  Solving for Ux, Initial residual = 3.78694578e-05, Final residual = 3.23157226e-09, No Iterations 1
smoothSolver:  Solving for Uy, Initial residual = 3.94574119e-05, Final residual = 3.26099391e-09, No Iterations 1
smoothSolver:  Solving for Uz, Initial residual = 0.000103891637, Final residual = 1.08290606e-08, No Iterations 1
DICPCG:  Solving for p, Initial residual = 0.000136479067, Final residual = 2.95450781e-06, No Iterations 2
time step continuity errors : sum local = 5.33366632e-10, global = -2.39025131e-20, cumulative = -3.01647288e-18
DICPCG:  Solving for p, Initial residual = 2.99062812e-06, Final residual = 8.98058177e-07, No Iterations 10
time step continuity errors : sum local = 1.66515187e-10, global = -1.78567256e-20, cumulative = -3.03432961e-18
ExecutionTime = 14.77 s  ClockTime = 15 s

Time = 25.15

Courant Number mean: 0.0238937964 max: 0.0396771415
smoothSolver:  Solving for Ux, Initial residual = 3.78216947e-05, Final residual = 3.22718086e-09, No Iterations 1
smoothSolver:  Solving for Uy, Initial residual = 3.94133287e-05, Final residual = 3.25717509e-09, No Iterations 1
smoothSolver:  Solving for Uz, Initial residual = 0.000103714009, Final residual = 1.08114218e-08, No Iterations 1
DICPCG:  Solving for p, Initial residual = 0.000135376219, Final residual = 3.01190753e-06, No Iterations 2
time step continuity errors : sum local = 5.44851971e-10, global = -1.94889783e-20, cumulative = -3.05381859e-18
DICPCG:  Solving for p, Initial residual = 3.05489546e-06, Final residual = 6.71967974e-07, No Iterations 4
time step continuity errors : sum local = 1.26326744e-10, global = -1.59642415e-20, cumulative = -3.06978283e-18
ExecutionTime = 14.96 s  ClockTime = 15 s

Time = 25.1525

Courant Number mean: 0.0238931039 max: 0.0396770402
smoothSolver:  Solving for Ux, Initial residual = 3.77751647e-05, Final residual = 3.22323447e-09, No Iterations 1
smoothSolver:  Solving for Uy, Initial residual = 3.93689123e-05, Final residual = 3.25340068e-09, No Iterations 1
smoothSolver:  Solving for Uz, Initial residual = 0.000103535285, Final residual = 1.07928622e-08, No Iterations 1
DICPCG:  Solving for p, Initial residual = 0.000135699408, Final residual = 2.87477841e-06, No Iterations 2
time step continuity errors : sum local = 5.20446929e-10, global = -1.8635863e-20, cumulative = -3.08841869e-18
DICPCG:  Solving for p, Initial residual = 2.89027105e-06, Final residual = 9.17817121e-07, No Iterations 9
time step continuity errors : sum local = 1.70577584e-10, global = -1.58712032e-20, cumulative = -3.10428989e-18
ExecutionTime = 15.17 s  ClockTime = 16 s

Time = 25.155

Courant Number mean: 0.0238924141 max: 0.0396769364
smoothSolver:  Solving for Ux, Initial residual = 3.77270285e-05, Final residual = 3.21893267e-09, No Iterations 1
smoothSolver:  Solving for Uy, Initial residual = 3.93240119e-05, Final residual = 3.24962366e-09, No Iterations 1
smoothSolver:  Solving for Uz, Initial residual = 0.000103365777, Final residual = 1.07757442e-08, No Iterations 1
DICPCG:  Solving for p, Initial residual = 0.000134918831, Final residual = 2.94518879e-06, No Iterations 2
time step continuity errors : sum local = 5.33316757e-10, global = -2.7624247e-20, cumulative = -3.13191414e-18
DICPCG:  Solving for p, Initial residual = 2.98463823e-06, Final residual = 9.71581132e-07, No Iterations 3
time step continuity errors : sum local = 1.80321408e-10, global = -1.87021741e-20, cumulative = -3.15061631e-18
ExecutionTime = 15.36 s  ClockTime = 16 s

Time = 25.1575

Courant Number mean: 0.023891727 max: 0.0396768294
smoothSolver:  Solving for Ux, Initial residual = 3.76798992e-05, Final residual = 3.21497268e-09, No Iterations 1
smoothSolver:  Solving for Uy, Initial residual = 3.92792506e-05, Final residual = 3.24590771e-09, No Iterations 1
smoothSolver:  Solving for Uz, Initial residual = 0.000103195663, Final residual = 1.0759159e-08, No Iterations 1
DICPCG:  Solving for p, Initial residual = 0.000134348801, Final residual = 2.93400338e-06, No Iterations 2
time step continuity errors : sum local = 5.31330691e-10, global = -1.49862451e-20, cumulative = -3.16560256e-18
DICPCG:  Solving for p, Initial residual = 2.95208897e-06, Final residual = 9.62032127e-07, No Iterations 28
time step continuity errors : sum local = 1.77966045e-10, global = -2.78570807e-20, cumulative = -3.19345964e-18
ExecutionTime = 15.64 s  ClockTime = 16 s

Time = 25.16

Courant Number mean: 0.0238910427 max: 0.0396767192
smoothSolver:  Solving for Ux, Initial residual = 3.76316393e-05, Final residual = 3.21065046e-09, No Iterations 1
smoothSolver:  Solving for Uy, Initial residual = 3.92341722e-05, Final residual = 3.24210837e-09, No Iterations 1
smoothSolver:  Solving for Uz, Initial residual = 0.000103026398, Final residual = 1.07426343e-08, No Iterations 1
DICPCG:  Solving for p, Initial residual = 0.000135146207, Final residual = 3.08326136e-06, No Iterations 2
time step continuity errors : sum local = 5.5689033e-10, global = -2.45845628e-20, cumulative = -3.2180442e-18
DICPCG:  Solving for p, Initial residual = 3.12939072e-06, Final residual = 9.66544788e-07, No Iterations 11
time step continuity errors : sum local = 1.78321361e-10, global = -3.15176328e-20, cumulative = -3.24956184e-18
ExecutionTime = 15.85 s  ClockTime = 16 s

Time = 25.1625

Courant Number mean: 0.0238903615 max: 0.0396766061
smoothSolver:  Solving for Ux, Initial residual = 3.75846843e-05, Final residual = 3.2068189e-09, No Iterations 1
smoothSolver:  Solving for Uy, Initial residual = 3.9189805e-05, Final residual = 3.23857341e-09, No Iterations 1
smoothSolver:  Solving for Uz, Initial residual = 0.000102845234, Final residual = 1.07233374e-08, No Iterations 1
DICPCG:  Solving for p, Initial residual = 0.000134905687, Final residual = 2.93008811e-06, No Iterations 2
time step continuity errors : sum local = 5.29112786e-10, global = -7.51958528e-21, cumulative = -3.25708142e-18
DICPCG:  Solving for p, Initial residual = 2.95666373e-06, Final residual = 9.84828322e-07, No Iterations 7
time step continuity errors : sum local = 1.80878671e-10, global = -2.66257322e-20, cumulative = -3.28370715e-18
ExecutionTime = 16.06 s  ClockTime = 16 s

Time = 25.165

Courant Number mean: 0.023889683 max: 0.0396764902
smoothSolver:  Solving for Ux, Initial residual = 3.75363606e-05, Final residual = 3.20268921e-09, No Iterations 1
smoothSolver:  Solving for Uy, Initial residual = 3.91450251e-05, Final residual = 3.2350321e-09, No Iterations 1
smoothSolver:  Solving for Uz, Initial residual = 0.000102665221, Final residual = 1.07043746e-08, No Iterations 1
DICPCG:  Solving for p, Initial residual = 0.000133990457, Final residual = 2.85713913e-06, No Iterations 2
time step continuity errors : sum local = 5.15250219e-10, global = -1.02366319e-20, cumulative = -3.29394379e-18
DICPCG:  Solving for p, Initial residual = 2.88204639e-06, Final residual = 8.8035972e-07, No Iterations 7
time step continuity errors : sum local = 1.6224108e-10, global = -1.2612277e-20, cumulative = -3.30655606e-18
ExecutionTime = 16.27 s  ClockTime = 17 s

Time = 25.1675

Courant Number mean: 0.0238890071 max: 0.0396763715
smoothSolver:  Solving for Ux, Initial residual = 3.74893142e-05, Final residual = 3.19879541e-09, No Iterations 1
smoothSolver:  Solving for Uy, Initial residual = 3.9100088e-05, Final residual = 3.23151885e-09, No Iterations 1
smoothSolver:  Solving for Uz, Initial residual = 0.000102489472, Final residual = 1.06869565e-08, No Iterations 1
DICPCG:  Solving for p, Initial residual = 0.000134845886, Final residual = 3.03862337e-06, No Iterations 2
time step continuity errors : sum local = 5.48161464e-10, global = -2.24872288e-20, cumulative = -3.32904329e-18
DICPCG:  Solving for p, Initial residual = 3.06736196e-06, Final residual = 9.97299317e-07, No Iterations 7
time step continuity errors : sum local = 1.82862079e-10, global = -2.86761883e-20, cumulative = -3.35771948e-18
ExecutionTime = 16.46 s  ClockTime = 17 s

Time = 25.17

Courant Number mean: 0.023888334 max: 0.0396762496
smoothSolver:  Solving for Ux, Initial residual = 3.74415326e-05, Final residual = 3.19473224e-09, No Iterations 1
smoothSolver:  Solving for Uy, Initial residual = 3.90544485e-05, Final residual = 3.22790766e-09, No Iterations 1
smoothSolver:  Solving for Uz, Initial residual = 0.000102312341, Final residual = 1.06685761e-08, No Iterations 1
DICPCG:  Solving for p, Initial residual = 0.000134074483, Final residual = 3.03119919e-06, No Iterations 2
time step continuity errors : sum local = 5.46348974e-10, global = -2.97153057e-20, cumulative = -3.38743478e-18
DICPCG:  Solving for p, Initial residual = 3.05804509e-06, Final residual = 8.62794696e-07, No Iterations 7
time step continuity errors : sum local = 1.58947683e-10, global = -2.51837738e-20, cumulative = -3.41261856e-18
ExecutionTime = 16.67 s  ClockTime = 17 s

Time = 25.1725

Courant Number mean: 0.0238876637 max: 0.0396761246
smoothSolver:  Solving for Ux, Initial residual = 3.73939728e-05, Final residual = 3.19075479e-09, No Iterations 1
smoothSolver:  Solving for Uy, Initial residual = 3.90091598e-05, Final residual = 3.22437695e-09, No Iterations 1
smoothSolver:  Solving for Uz, Initial residual = 0.000102141084, Final residual = 1.06515108e-08, No Iterations 1
DICPCG:  Solving for p, Initial residual = 0.000133687954, Final residual = 2.9620524e-06, No Iterations 2
time step continuity errors : sum local = 5.34376255e-10, global = -2.10893359e-20, cumulative = -3.43370789e-18
DICPCG:  Solving for p, Initial residual = 2.98847555e-06, Final residual = 9.7348479e-07, No Iterations 7
time step continuity errors : sum local = 1.78807689e-10, global = -2.28579389e-20, cumulative = -3.45656583e-18
ExecutionTime = 16.87 s  ClockTime = 17 s

Time = 25.175

Courant Number mean: 0.0238869965 max: 0.0396759973
smoothSolver:  Solving for Ux, Initial residual = 3.7345977e-05, Final residual = 3.18667128e-09, No Iterations 1
smoothSolver:  Solving for Uy, Initial residual = 3.89634164e-05, Final residual = 3.22081787e-09, No Iterations 1
smoothSolver:  Solving for Uz, Initial residual = 0.000101965291, Final residual = 1.06325318e-08, No Iterations 1
DICPCG:  Solving for p, Initial residual = 0.000134504648, Final residual = 3.02384472e-06, No Iterations 2
time step continuity errors : sum local = 5.45423954e-10, global = -1.94416833e-20, cumulative = -3.47600752e-18
DICPCG:  Solving for p, Initial residual = 3.05351841e-06, Final residual = 9.85449061e-07, No Iterations 5
time step continuity errors : sum local = 1.81111825e-10, global = -3.43291111e-20, cumulative = -3.51033663e-18
ExecutionTime = 17.07 s  ClockTime = 17 s

Time = 25.1775

Courant Number mean: 0.0238863317 max: 0.0396758673
smoothSolver:  Solving for Ux, Initial residual = 3.72976345e-05, Final residual = 3.18264006e-09, No Iterations 1
smoothSolver:  Solving for Uy, Initial residual = 3.89165559e-05, Final residual = 3.21708302e-09, No Iterations 1
smoothSolver:  Solving for Uz, Initial residual = 0.000101806834, Final residual = 1.06185834e-08, No Iterations 1
DICPCG:  Solving for p, Initial residual = 0.000132391935, Final residual = 2.88455125e-06, No Iterations 2
time step continuity errors : sum local = 5.20741234e-10, global = -2.18263039e-20, cumulative = -3.53216293e-18
DICPCG:  Solving for p, Initial residual = 2.89264865e-06, Final residual = 8.90184875e-07, No Iterations 15
time step continuity errors : sum local = 1.64497604e-10, global = -4.31017833e-20, cumulative = -3.57526472e-18
ExecutionTime = 17.31 s  ClockTime = 18 s

Time = 25.18

Courant Number mean: 0.0238856695 max: 0.0396757349
smoothSolver:  Solving for Ux, Initial residual = 3.72493538e-05, Final residual = 3.17854448e-09, No Iterations 1
smoothSolver:  Solving for Uy, Initial residual = 3.88704016e-05, Final residual = 3.21346239e-09, No Iterations 1
smoothSolver:  Solving for Uz, Initial residual = 0.000101626725, Final residual = 1.05996338e-08, No Iterations 1
DICPCG:  Solving for p, Initial residual = 0.000132761019, Final residual = 2.9087551e-06, No Iterations 2
time step continuity errors : sum local = 5.25605825e-10, global = -2.3990211e-20, cumulative = -3.59925493e-18
DICPCG:  Solving for p, Initial residual = 2.94393684e-06, Final residual = 9.33140026e-07, No Iterations 4
time step continuity errors : sum local = 1.72307526e-10, global = -3.23947057e-20, cumulative = -3.63164963e-18
ExecutionTime = 17.5 s  ClockTime = 18 s

Time = 25.1825

Courant Number mean: 0.0238850101 max: 0.0396755992
smoothSolver:  Solving for Ux, Initial residual = 3.72009183e-05, Final residual = 3.17460633e-09, No Iterations 1
smoothSolver:  Solving for Uy, Initial residual = 3.88241674e-05, Final residual = 3.20990142e-09, No Iterations 1
smoothSolver:  Solving for Uz, Initial residual = 0.000101458946, Final residual = 1.05826685e-08, No Iterations 1
DICPCG:  Solving for p, Initial residual = 0.000133709718, Final residual = 2.97392967e-06, No Iterations 2
time step continuity errors : sum local = 5.37184897e-10, global = -2.37610754e-20, cumulative = -3.65541071e-18
DICPCG:  Solving for p, Initial residual = 2.99991846e-06, Final residual = 9.21043979e-07, No Iterations 16
time step continuity errors : sum local = 1.68779979e-10, global = -1.79035361e-20, cumulative = -3.67331424e-18
ExecutionTime = 17.73 s  ClockTime = 18 s

Time = 25.185

Courant Number mean: 0.0238843533 max: 0.039675461
smoothSolver:  Solving for Ux, Initial residual = 3.71523862e-05, Final residual = 3.17064739e-09, No Iterations 1
smoothSolver:  Solving for Uy, Initial residual = 3.87782005e-05, Final residual = 3.20641164e-09, No Iterations 1
smoothSolver:  Solving for Uz, Initial residual = 0.000101289664, Final residual = 1.0565209e-08, No Iterations 1
DICPCG:  Solving for p, Initial residual = 0.000132138609, Final residual = 2.98322707e-06, No Iterations 2
time step continuity errors : sum local = 5.3659245e-10, global = -2.6076374e-20, cumulative = -3.69939062e-18
DICPCG:  Solving for p, Initial residual = 2.98504233e-06, Final residual = 9.65430813e-07, No Iterations 12
time step continuity errors : sum local = 1.77288841e-10, global = -1.8698015e-20, cumulative = -3.71808863e-18
ExecutionTime = 17.96 s  ClockTime = 18 s

Time = 25.1875

Courant Number mean: 0.0238836992 max: 0.0396753209
smoothSolver:  Solving for Ux, Initial residual = 3.71038022e-05, Final residual = 3.16666592e-09, No Iterations 1
smoothSolver:  Solving for Uy, Initial residual = 3.87316871e-05, Final residual = 3.20284708e-09, No Iterations 1
smoothSolver:  Solving for Uz, Initial residual = 0.000101121922, Final residual = 1.05482531e-08, No Iterations 1
DICPCG:  Solving for p, Initial residual = 0.000132037466, Final residual = 2.86943902e-06, No Iterations 2
time step continuity errors : sum local = 5.1801427e-10, global = -1.42886507e-20, cumulative = -3.73237728e-18
DICPCG:  Solving for p, Initial residual = 2.89057803e-06, Final residual = 8.53737617e-07, No Iterations 4
time step continuity errors : sum local = 1.57648996e-10, global = -2.471959e-20, cumulative = -3.75709687e-18
ExecutionTime = 18.15 s  ClockTime = 19 s

Time = 25.19

Courant Number mean: 0.0238830479 max: 0.0396751784
smoothSolver:  Solving for Ux, Initial residual = 3.70552404e-05, Final residual = 3.16276421e-09, No Iterations 1
smoothSolver:  Solving for Uy, Initial residual = 3.86853648e-05, Final residual = 3.19934091e-09, No Iterations 1
smoothSolver:  Solving for Uz, Initial residual = 0.000100932745, Final residual = 1.05292114e-08, No Iterations 1
DICPCG:  Solving for p, Initial residual = 0.000132035963, Final residual = 2.80902802e-06, No Iterations 2
time step continuity errors : sum local = 5.07322635e-10, global = -2.27984311e-20, cumulative = -3.7798953e-18
DICPCG:  Solving for p, Initial residual = 2.83465702e-06, Final residual = 8.74787873e-07, No Iterations 7
time step continuity errors : sum local = 1.61346517e-10, global = -1.95433358e-20, cumulative = -3.79943864e-18
ExecutionTime = 18.36 s  ClockTime = 19 s

Time = 25.1925

Courant Number mean: 0.0238823992 max: 0.0396750335
smoothSolver:  Solving for Ux, Initial residual = 3.70062988e-05, Final residual = 3.15883885e-09, No Iterations 1
smoothSolver:  Solving for Uy, Initial residual = 3.86382071e-05, Final residual = 3.19577549e-09, No Iterations 1
smoothSolver:  Solving for Uz, Initial residual = 0.000100769592, Final residual = 1.05125521e-08, No Iterations 1
DICPCG:  Solving for p, Initial residual = 0.000130879706, Final residual = 2.70411341e-06, No Iterations 2
time step continuity errors : sum local = 4.88269155e-10, global = -2.01829115e-20, cumulative = -3.81962155e-18
DICPCG:  Solving for p, Initial residual = 2.73748925e-06, Final residual = 9.18336114e-07, No Iterations 2
time step continuity errors : sum local = 1.69005175e-10, global = -2.09483963e-20, cumulative = -3.84056995e-18
ExecutionTime = 18.54 s  ClockTime = 19 s

Time = 25.195

Courant Number mean: 0.023881753 max: 0.0396748863
smoothSolver:  Solving for Ux, Initial residual = 3.69570968e-05, Final residual = 3.15489009e-09, No Iterations 1
smoothSolver:  Solving for Uy, Initial residual = 3.85919298e-05, Final residual = 3.19240595e-09, No Iterations 1
smoothSolver:  Solving for Uz, Initial residual = 0.000100592812, Final residual = 1.04958399e-08, No Iterations 1
DICPCG:  Solving for p, Initial residual = 0.000130237419, Final residual = 2.83121505e-06, No Iterations 2
time step continuity errors : sum local = 5.10838489e-10, global = -1.9276144e-20, cumulative = -3.85984609e-18
DICPCG:  Solving for p, Initial residual = 2.83065077e-06, Final residual = 9.87223906e-07, No Iterations 30
time step continuity errors : sum local = 1.80314303e-10, global = -2.69770428e-20, cumulative = -3.88682313e-18
ExecutionTime = 18.83 s  ClockTime = 19 s

Time = 25.1975

Courant Number mean: 0.0238811096 max: 0.0396747371
smoothSolver:  Solving for Ux, Initial residual = 3.69079828e-05, Final residual = 3.15086067e-09, No Iterations 1
smoothSolver:  Solving for Uy, Initial residual = 3.85446301e-05, Final residual = 3.18878403e-09, No Iterations 1
smoothSolver:  Solving for Uz, Initial residual = 0.000100423015, Final residual = 1.04788412e-08, No Iterations 1
DICPCG:  Solving for p, Initial residual = 0.000129721751, Final residual = 2.79459002e-06, No Iterations 2
time step continuity errors : sum local = 5.02701856e-10, global = -2.67019018e-20, cumulative = -3.91352504e-18
DICPCG:  Solving for p, Initial residual = 2.81729515e-06, Final residual = 9.84383027e-07, No Iterations 13
time step continuity errors : sum local = 1.79234643e-10, global = -2.31795493e-20, cumulative = -3.93670459e-18
ExecutionTime = 19.06 s  ClockTime = 19 s

Time = 25.2

Courant Number mean: 0.0238804688 max: 0.0396745854
smoothSolver:  Solving for Ux, Initial residual = 3.68586708e-05, Final residual = 3.14717626e-09, No Iterations 1
smoothSolver:  Solving for Uy, Initial residual = 3.84972623e-05, Final residual = 3.18533302e-09, No Iterations 1
smoothSolver:  Solving for Uz, Initial residual = 0.000100246724, Final residual = 1.04605214e-08, No Iterations 1
DICPCG:  Solving for p, Initial residual = 0.000129826612, Final residual = 2.9510548e-06, No Iterations 2
time step continuity errors : sum local = 5.30399821e-10, global = -1.90081893e-20, cumulative = -3.95571278e-18
DICPCG:  Solving for p, Initial residual = 2.97037883e-06, Final residual = 8.97781815e-07, No Iterations 11
time step continuity errors : sum local = 1.63230545e-10, global = -2.40560679e-20, cumulative = -3.97976884e-18
ExecutionTime = 19.27 s  ClockTime = 20 s

Time = 25.2025

Courant Number mean: 0.0238798307 max: 0.0396744323
smoothSolver:  Solving for Ux, Initial residual = 3.68091538e-05, Final residual = 3.14332033e-09, No Iterations 1
smoothSolver:  Solving for Uy, Initial residual = 3.84502537e-05, Final residual = 3.181961e-09, No Iterations 1
smoothSolver:  Solving for Uz, Initial residual = 0.000100079434, Final residual = 1.04429068e-08, No Iterations 1
DICPCG:  Solving for p, Initial residual = 0.000129245908, Final residual = 2.86186469e-06, No Iterations 2
time step continuity errors : sum local = 5.13921728e-10, global = -1.49897781e-20, cumulative = -3.99475862e-18
DICPCG:  Solving for p, Initial residual = 2.87593025e-06, Final residual = 8.53684581e-07, No Iterations 27
time step continuity errors : sum local = 1.56507372e-10, global = -3.26066726e-20, cumulative = -4.02736529e-18
ExecutionTime = 19.54 s  ClockTime = 20 s

Time = 25.205

Courant Number mean: 0.023879195 max: 0.0396742766
smoothSolver:  Solving for Ux, Initial residual = 3.67610488e-05, Final residual = 3.13956114e-09, No Iterations 1
smoothSolver:  Solving for Uy, Initial residual = 3.84025805e-05, Final residual = 3.17854197e-09, No Iterations 1
smoothSolver:  Solving for Uz, Initial residual = 9.98994209e-05, Final residual = 1.04235342e-08, No Iterations 1
DICPCG:  Solving for p, Initial residual = 0.000128970879, Final residual = 2.76822488e-06, No Iterations 2
time step continuity errors : sum local = 4.9938462e-10, global = -2.64680171e-20, cumulative = -4.05383331e-18
DICPCG:  Solving for p, Initial residual = 2.79900875e-06, Final residual = 9.83524714e-07, No Iterations 4
time step continuity errors : sum local = 1.8054233e-10, global = -2.58000803e-20, cumulative = -4.07963339e-18
ExecutionTime = 19.74 s  ClockTime = 20 s

Time = 25.2075

Courant Number mean: 0.0238785621 max: 0.0396741188
smoothSolver:  Solving for Ux, Initial residual = 3.67100985e-05, Final residual = 3.13556598e-09, No Iterations 1
smoothSolver:  Solving for Uy, Initial residual = 3.83551674e-05, Final residual = 3.17507335e-09, No Iterations 1
smoothSolver:  Solving for Uz, Initial residual = 9.9735944e-05, Final residual = 1.04067889e-08, No Iterations 1
DICPCG:  Solving for p, Initial residual = 0.000129245825, Final residual = 2.84060563e-06, No Iterations 2
time step continuity errors : sum local = 5.1289221e-10, global = -3.05884062e-20, cumulative = -4.1102218e-18
DICPCG:  Solving for p, Initial residual = 2.85485358e-06, Final residual = 9.76005606e-07, No Iterations 30
time step continuity errors : sum local = 1.78754128e-10, global = -1.22502149e-20, cumulative = -4.12247201e-18
ExecutionTime = 20.02 s  ClockTime = 20 s

Time = 25.21

Courant Number mean: 0.0238779315 max: 0.0396739596
smoothSolver:  Solving for Ux, Initial residual = 3.66589683e-05, Final residual = 3.13195974e-09, No Iterations 1
smoothSolver:  Solving for Uy, Initial residual = 3.83082398e-05, Final residual = 3.17164169e-09, No Iterations 1
smoothSolver:  Solving for Uz, Initial residual = 9.95669326e-05, Final residual = 1.03898431e-08, No Iterations 1
DICPCG:  Solving for p, Initial residual = 0.000128025888, Final residual = 2.94115386e-06, No Iterations 2
time step continuity errors : sum local = 5.29673716e-10, global = -2.45656152e-20, cumulative = -4.14703763e-18
DICPCG:  Solving for p, Initial residual = 2.96337899e-06, Final residual = 9.12481118e-07, No Iterations 13
time step continuity errors : sum local = 1.67102406e-10, global = -3.03223633e-20, cumulative = -4.17735999e-18
ExecutionTime = 20.24 s  ClockTime = 21 s

Time = 25.2125

Courant Number mean: 0.0238773036 max: 0.0396737976
smoothSolver:  Solving for Ux, Initial residual = 3.66093503e-05, Final residual = 3.12795044e-09, No Iterations 1
smoothSolver:  Solving for Uy, Initial residual = 3.82601164e-05, Final residual = 3.16818759e-09, No Iterations 1
smoothSolver:  Solving for Uz, Initial residual = 9.93980784e-05, Final residual = 1.03725385e-08, No Iterations 1
DICPCG:  Solving for p, Initial residual = 0.000128200462, Final residual = 2.88339357e-06, No Iterations 2
time step continuity errors : sum local = 5.19134567e-10, global = -2.2394389e-20, cumulative = -4.19975438e-18
DICPCG:  Solving for p, Initial residual = 2.92282643e-06, Final residual = 7.81468751e-07, No Iterations 10
time step continuity errors : sum local = 1.43379792e-10, global = -2.41832998e-20, cumulative = -4.22393768e-18
ExecutionTime = 20.45 s  ClockTime = 21 s

Time = 25.215

Courant Number mean: 0.0238766781 max: 0.0396736343
smoothSolver:  Solving for Ux, Initial residual = 3.65597384e-05, Final residual = 3.12427979e-09, No Iterations 1
smoothSolver:  Solving for Uy, Initial residual = 3.82125798e-05, Final residual = 3.16480925e-09, No Iterations 1
smoothSolver:  Solving for Uz, Initial residual = 9.92194254e-05, Final residual = 1.03539719e-08, No Iterations 1
DICPCG:  Solving for p, Initial residual = 0.000128039122, Final residual = 2.82467052e-06, No Iterations 2
time step continuity errors : sum local = 5.08290749e-10, global = -3.97388951e-20, cumulative = -4.26367657e-18
DICPCG:  Solving for p, Initial residual = 2.85381095e-06, Final residual = 9.64477881e-07, No Iterations 4
time step continuity errors : sum local = 1.75713288e-10, global = -2.29125672e-20, cumulative = -4.28658914e-18
ExecutionTime = 20.65 s  ClockTime = 21 s

Time = 25.2175

Courant Number mean: 0.0238760552 max: 0.0396734685
smoothSolver:  Solving for Ux, Initial residual = 3.65089113e-05, Final residual = 3.12030608e-09, No Iterations 1
smoothSolver:  Solving for Uy, Initial residual = 3.81642641e-05, Final residual = 3.1613571e-09, No Iterations 1
smoothSolver:  Solving for Uz, Initial residual = 9.90521808e-05, Final residual = 1.0336918e-08, No Iterations 1
DICPCG:  Solving for p, Initial residual = 0.000129531296, Final residual = 2.89769278e-06, No Iterations 2
time step continuity errors : sum local = 5.20925854e-10, global = -1.82886551e-20, cumulative = -4.3048778e-18
DICPCG:  Solving for p, Initial residual = 2.91971777e-06, Final residual = 9.27598566e-07, No Iterations 7
time step continuity errors : sum local = 1.68832286e-10, global = -3.02431781e-20, cumulative = -4.33512097e-18
ExecutionTime = 20.85 s  ClockTime = 21 s

Time = 25.22

Courant Number mean: 0.0238754348 max: 0.039673301
smoothSolver:  Solving for Ux, Initial residual = 3.64586324e-05, Final residual = 3.11667145e-09, No Iterations 1
smoothSolver:  Solving for Uy, Initial residual = 3.81169846e-05, Final residual = 3.15816002e-09, No Iterations 1
smoothSolver:  Solving for Uz, Initial residual = 9.88926726e-05, Final residual = 1.03186915e-08, No Iterations 1
DICPCG:  Solving for p, Initial residual = 0.000128648054, Final residual = 2.87907771e-06, No Iterations 2
time step continuity errors : sum local = 5.17334784e-10, global = -2.90936887e-20, cumulative = -4.36421466e-18
DICPCG:  Solving for p, Initial residual = 2.91508212e-06, Final residual = 9.7932961e-07, No Iterations 4
time step continuity errors : sum local = 1.77871762e-10, global = -3.45546217e-20, cumulative = -4.39876929e-18
ExecutionTime = 21.05 s  ClockTime = 21 s

Time = 25.2225

Courant Number mean: 0.023874817 max: 0.0396731312
[...]
time step continuity errors : sum local = 1.87389112e-10, global = -3.74681662e-20, cumulative = -1.94916454e-16
ExecutionTime = 886.66 s  ClockTime = 887 s

Time = 34.9475

Courant Number mean: 0.0236715316 max: 0.0395180269
smoothSolver:  Solving for Ux, Initial residual = 3.13352011e-05, Final residual = 2.7630138e-09, No Iterations 1
smoothSolver:  Solving for Uy, Initial residual = 4.03640083e-05, Final residual = 3.53886311e-09, No Iterations 1
smoothSolver:  Solving for Uz, Initial residual = 0.000265724315, Final residual = 2.79533491e-08, No Iterations 1
DICPCG:  Solving for p, Initial residual = 0.000190496052, Final residual = 5.2070764e-06, No Iterations 3
time step continuity errors : sum local = 9.44683208e-10, global = -1.87986634e-20, cumulative = -1.94935253e-16
DICPCG:  Solving for p, Initial residual = 5.83119712e-06, Final residual = 9.8002688e-07, No Iterations 21
time step continuity errors : sum local = 1.87384827e-10, global = -2.73103251e-20, cumulative = -1.94962563e-16
ExecutionTime = 886.9 s  ClockTime = 888 s

Time = 34.95

Courant Number mean: 0.0236715523 max: 0.0395179718
smoothSolver:  Solving for Ux, Initial residual = 3.1362864e-05, Final residual = 2.76446262e-09, No Iterations 1
smoothSolver:  Solving for Uy, Initial residual = 4.04060291e-05, Final residual = 3.54140869e-09, No Iterations 1
smoothSolver:  Solving for Uz, Initial residual = 0.000266069095, Final residual = 2.79864558e-08, No Iterations 1
DICPCG:  Solving for p, Initial residual = 0.000193673302, Final residual = 5.64111773e-06, No Iterations 3
time step continuity errors : sum local = 1.02032825e-09, global = -1.81107302e-20, cumulative = -1.94980674e-16
DICPCG:  Solving for p, Initial residual = 6.2714256e-06, Final residual = 9.1733619e-07, No Iterations 8
time step continuity errors : sum local = 1.76061112e-10, global = -3.20410634e-20, cumulative = -1.95012715e-16
ExecutionTime = 887.12 s  ClockTime = 888 s

Time = 34.9525

Courant Number mean: 0.0236715724 max: 0.039517912
smoothSolver:  Solving for Ux, Initial residual = 3.13896621e-05, Final residual = 2.76628539e-09, No Iterations 1
smoothSolver:  Solving for Uy, Initial residual = 4.04491073e-05, Final residual = 3.54414015e-09, No Iterations 1
smoothSolver:  Solving for Uz, Initial residual = 0.000266388364, Final residual = 2.80169707e-08, No Iterations 1
DICPCG:  Solving for p, Initial residual = 0.000196376778, Final residual = 5.35904563e-06, No Iterations 3
time step continuity errors : sum local = 9.70376579e-10, global = -3.80263156e-20, cumulative = -1.95050741e-16
DICPCG:  Solving for p, Initial residual = 6.00795139e-06, Final residual = 9.24122755e-07, No Iterations 16
time step continuity errors : sum local = 1.78073956e-10, global = -3.01892983e-20, cumulative = -1.9508093e-16
ExecutionTime = 887.35 s  ClockTime = 888 s

Time = 34.955

Courant Number mean: 0.0236715928 max: 0.0395178466
smoothSolver:  Solving for Ux, Initial residual = 3.14191167e-05, Final residual = 2.76823198e-09, No Iterations 1
smoothSolver:  Solving for Uy, Initial residual = 4.04904292e-05, Final residual = 3.54643619e-09, No Iterations 1
smoothSolver:  Solving for Uz, Initial residual = 0.000266735211, Final residual = 2.80502397e-08, No Iterations 1
DICPCG:  Solving for p, Initial residual = 0.000191624542, Final residual = 5.59057964e-06, No Iterations 3
time step continuity errors : sum local = 1.01318233e-09, global = -2.108979e-20, cumulative = -1.9510202e-16
DICPCG:  Solving for p, Initial residual = 6.20177731e-06, Final residual = 8.32418836e-07, No Iterations 12
time step continuity errors : sum local = 1.62936541e-10, global = -1.93335549e-20, cumulative = -1.95121354e-16
ExecutionTime = 887.57 s  ClockTime = 888 s

Time = 34.9575

Courant Number mean: 0.0236716146 max: 0.0395177758
smoothSolver:  Solving for Ux, Initial residual = 3.14480687e-05, Final residual = 2.77036199e-09, No Iterations 1
smoothSolver:  Solving for Uy, Initial residual = 4.05346121e-05, Final residual = 3.54908977e-09, No Iterations 1
smoothSolver:  Solving for Uz, Initial residual = 0.000267043715, Final residual = 2.80805045e-08, No Iterations 1
DICPCG:  Solving for p, Initial residual = 0.000192681908, Final residual = 5.61083755e-06, No Iterations 3
time step continuity errors : sum local = 1.01829481e-09, global = -2.87356114e-20, cumulative = -1.95150089e-16
DICPCG:  Solving for p, Initial residual = 6.23288997e-06, Final residual = 9.5809397e-07, No Iterations 6
time step continuity errors : sum local = 1.86450132e-10, global = -2.47198903e-20, cumulative = -1.95174809e-16
ExecutionTime = 887.78 s  ClockTime = 888 s

Time = 34.96

Courant Number mean: 0.0236716365 max: 0.0395177009
smoothSolver:  Solving for Ux, Initial residual = 3.1481563e-05, Final residual = 2.77283367e-09, No Iterations 1
smoothSolver:  Solving for Uy, Initial residual = 4.05782338e-05, Final residual = 3.55183854e-09, No Iterations 1
smoothSolver:  Solving for Uz, Initial residual = 0.000267356841, Final residual = 2.81162864e-08, No Iterations 1
DICPCG:  Solving for p, Initial residual = 0.000194011827, Final residual = 5.45873159e-06, No Iterations 3
time step continuity errors : sum local = 9.92074244e-10, global = -2.23483444e-20, cumulative = -1.95197158e-16
DICPCG:  Solving for p, Initial residual = 6.1407123e-06, Final residual = 9.12576814e-07, No Iterations 8
time step continuity errors : sum local = 1.79716503e-10, global = -2.62097545e-20, cumulative = -1.95223367e-16
ExecutionTime = 887.98 s  ClockTime = 889 s

Time = 34.9625

Courant Number mean: 0.0236716571 max: 0.0395176209
smoothSolver:  Solving for Ux, Initial residual = 3.15131574e-05, Final residual = 2.77483584e-09, No Iterations 1
smoothSolver:  Solving for Uy, Initial residual = 4.0620658e-05, Final residual = 3.55420995e-09, No Iterations 1
smoothSolver:  Solving for Uz, Initial residual = 0.00026766992, Final residual = 2.81637869e-08, No Iterations 1
DICPCG:  Solving for p, Initial residual = 0.000190632521, Final residual = 5.35264756e-06, No Iterations 3
time step continuity errors : sum local = 9.7475497e-10, global = -2.03724647e-20, cumulative = -1.9524374e-16
DICPCG:  Solving for p, Initial residual = 5.95876488e-06, Final residual = 8.24195698e-07, No Iterations 8
time step continuity errors : sum local = 1.6518469e-10, global = -1.98164176e-20, cumulative = -1.95263556e-16
ExecutionTime = 888.19 s  ClockTime = 889 s

Time = 34.965

Courant Number mean: 0.0236716769 max: 0.039517537
smoothSolver:  Solving for Ux, Initial residual = 3.15468071e-05, Final residual = 2.77704789e-09, No Iterations 1
smoothSolver:  Solving for Uy, Initial residual = 4.06663605e-05, Final residual = 3.55688434e-09, No Iterations 1
smoothSolver:  Solving for Uz, Initial residual = 0.000267973265, Final residual = 2.82037547e-08, No Iterations 1
DICPCG:  Solving for p, Initial residual = 0.000189653475, Final residual = 5.48929169e-06, No Iterations 3
time step continuity errors : sum local = 1.00035123e-09, global = -1.86356829e-20, cumulative = -1.95282192e-16
DICPCG:  Solving for p, Initial residual = 6.0595924e-06, Final residual = 9.97321355e-07, No Iterations 16
time step continuity errors : sum local = 1.969646e-10, global = -1.79773829e-20, cumulative = -1.95300169e-16
ExecutionTime = 888.43 s  ClockTime = 889 s

Time = 34.9675

Courant Number mean: 0.0236716963 max: 0.0395174483
smoothSolver:  Solving for Ux, Initial residual = 3.15756812e-05, Final residual = 2.7791309e-09, No Iterations 1
smoothSolver:  Solving for Uy, Initial residual = 4.07134594e-05, Final residual = 3.55977345e-09, No Iterations 1
smoothSolver:  Solving for Uz, Initial residual = 0.00026827447, Final residual = 2.82407229e-08, No Iterations 1
DICPCG:  Solving for p, Initial residual = 0.0001900398, Final residual = 5.4116163e-06, No Iterations 3
time step continuity errors : sum local = 9.8691309e-10, global = -1.62557848e-20, cumulative = -1.95316425e-16
DICPCG:  Solving for p, Initial residual = 5.97852974e-06, Final residual = 9.66208681e-07, No Iterations 10
time step continuity errors : sum local = 1.9155157e-10, global = -3.29838019e-20, cumulative = -1.95349409e-16
ExecutionTime = 888.64 s  ClockTime = 889 s

Time = 34.97

Courant Number mean: 0.0236717145 max: 0.0395173552
smoothSolver:  Solving for Ux, Initial residual = 3.16069594e-05, Final residual = 2.78138175e-09, No Iterations 1
smoothSolver:  Solving for Uy, Initial residual = 4.07595221e-05, Final residual = 3.56284127e-09, No Iterations 1
smoothSolver:  Solving for Uz, Initial residual = 0.000268564837, Final residual = 2.82637667e-08, No Iterations 1
DICPCG:  Solving for p, Initial residual = 0.000191855374, Final residual = 6.14454626e-06, No Iterations 3
time step continuity errors : sum local = 1.11776782e-09, global = -2.84893386e-20, cumulative = -1.95377898e-16
DICPCG:  Solving for p, Initial residual = 6.71518082e-06, Final residual = 9.69991239e-07, No Iterations 13
time step continuity errors : sum local = 1.92403898e-10, global = -2.35403706e-20, cumulative = -1.95401439e-16
ExecutionTime = 888.87 s  ClockTime = 890 s

Time = 34.9725

Courant Number mean: 0.0236717337 max: 0.039517257
smoothSolver:  Solving for Ux, Initial residual = 3.16414744e-05, Final residual = 2.78369977e-09, No Iterations 1
smoothSolver:  Solving for Uy, Initial residual = 4.08011351e-05, Final residual = 3.56506316e-09, No Iterations 1
smoothSolver:  Solving for Uz, Initial residual = 0.000268873969, Final residual = 2.82952505e-08, No Iterations 1
DICPCG:  Solving for p, Initial residual = 0.00019470295, Final residual = 5.75829542e-06, No Iterations 3
time step continuity errors : sum local = 1.04882087e-09, global = -2.80819872e-20, cumulative = -1.95429521e-16
DICPCG:  Solving for p, Initial residual = 6.36952579e-06, Final residual = 9.63967267e-07, No Iterations 10
time step continuity errors : sum local = 1.9147358e-10, global = -2.54948248e-20, cumulative = -1.95455015e-16
ExecutionTime = 889.08 s  ClockTime = 890 s

Time = 34.975

Courant Number mean: 0.0236717527 max: 0.0395171554
smoothSolver:  Solving for Ux, Initial residual = 3.16775266e-05, Final residual = 2.78616807e-09, No Iterations 1
smoothSolver:  Solving for Uy, Initial residual = 4.08415597e-05, Final residual = 3.56719093e-09, No Iterations 1
smoothSolver:  Solving for Uz, Initial residual = 0.000269178407, Final residual = 2.83246551e-08, No Iterations 1
DICPCG:  Solving for p, Initial residual = 0.000193957466, Final residual = 5.86172739e-06, No Iterations 3
time step continuity errors : sum local = 1.06753463e-09, global = -3.37547353e-20, cumulative = -1.9548877e-16
DICPCG:  Solving for p, Initial residual = 6.45216956e-06, Final residual = 8.46366021e-07, No Iterations 8
time step continuity errors : sum local = 1.70805847e-10, global = -3.19900721e-20, cumulative = -1.9552076e-16
ExecutionTime = 889.29 s  ClockTime = 890 s

Time = 34.9775

Courant Number mean: 0.0236717712 max: 0.0395170491
smoothSolver:  Solving for Ux, Initial residual = 3.17147937e-05, Final residual = 2.7886934e-09, No Iterations 1
smoothSolver:  Solving for Uy, Initial residual = 4.08833554e-05, Final residual = 3.56955238e-09, No Iterations 1
smoothSolver:  Solving for Uz, Initial residual = 0.000269479156, Final residual = 2.83596356e-08, No Iterations 1
DICPCG:  Solving for p, Initial residual = 0.000193834382, Final residual = 5.85271081e-06, No Iterations 3
time step continuity errors : sum local = 1.06641904e-09, global = -1.09440035e-20, cumulative = -1.95531704e-16
DICPCG:  Solving for p, Initial residual = 6.43044115e-06, Final residual = 9.11934534e-07, No Iterations 8
time step continuity errors : sum local = 1.83143673e-10, global = -4.04616418e-20, cumulative = -1.95572166e-16
ExecutionTime = 889.5 s  ClockTime = 890 s

Time = 34.98

Courant Number mean: 0.0236717919 max: 0.0395169378
smoothSolver:  Solving for Ux, Initial residual = 3.17475296e-05, Final residual = 2.79060936e-09, No Iterations 1
smoothSolver:  Solving for Uy, Initial residual = 4.09263406e-05, Final residual = 3.57214441e-09, No Iterations 1
smoothSolver:  Solving for Uz, Initial residual = 0.000269769939, Final residual = 2.83972058e-08, No Iterations 1
DICPCG:  Solving for p, Initial residual = 0.000199189836, Final residual = 6.87712114e-06, No Iterations 3
time step continuity errors : sum local = 1.25038529e-09, global = -2.97772352e-20, cumulative = -1.95601943e-16
DICPCG:  Solving for p, Initial residual = 7.52329847e-06, Final residual = 9.64486237e-07, No Iterations 13
time step continuity errors : sum local = 1.93444751e-10, global = -1.74693261e-20, cumulative = -1.95619412e-16
ExecutionTime = 889.72 s  ClockTime = 890 s

Time = 34.9825

Courant Number mean: 0.0236718146 max: 0.0395168215
smoothSolver:  Solving for Ux, Initial residual = 3.17780352e-05, Final residual = 2.79199584e-09, No Iterations 1
smoothSolver:  Solving for Uy, Initial residual = 4.09698038e-05, Final residual = 3.57427497e-09, No Iterations 1
smoothSolver:  Solving for Uz, Initial residual = 0.000270067316, Final residual = 2.8433668e-08, No Iterations 1
DICPCG:  Solving for p, Initial residual = 0.000195228933, Final residual = 6.0899486e-06, No Iterations 3
time step continuity errors : sum local = 1.11060817e-09, global = -3.17360982e-20, cumulative = -1.95651149e-16
DICPCG:  Solving for p, Initial residual = 6.72132991e-06, Final residual = 9.34114223e-07, No Iterations 19
time step continuity errors : sum local = 1.89312182e-10, global = -1.29492453e-20, cumulative = -1.95664098e-16
ExecutionTime = 889.97 s  ClockTime = 891 s

Time = 34.985

Courant Number mean: 0.0236718384 max: 0.0395167029
smoothSolver:  Solving for Ux, Initial residual = 3.18087752e-05, Final residual = 2.7937007e-09, No Iterations 1
smoothSolver:  Solving for Uy, Initial residual = 4.1009766e-05, Final residual = 3.57619572e-09, No Iterations 1
smoothSolver:  Solving for Uz, Initial residual = 0.000270378967, Final residual = 2.84745109e-08, No Iterations 1
DICPCG:  Solving for p, Initial residual = 0.000201752319, Final residual = 6.8283458e-06, No Iterations 3
time step continuity errors : sum local = 1.24424419e-09, global = -2.34321948e-20, cumulative = -1.9568753e-16
DICPCG:  Solving for p, Initial residual = 7.49628116e-06, Final residual = 8.81196335e-07, No Iterations 8
time step continuity errors : sum local = 1.8096837e-10, global = -1.72715246e-20, cumulative = -1.95704802e-16
ExecutionTime = 890.17 s  ClockTime = 891 s

Time = 34.9875

Courant Number mean: 0.0236718628 max: 0.0395165777
smoothSolver:  Solving for Ux, Initial residual = 3.18440245e-05, Final residual = 2.79536344e-09, No Iterations 1
smoothSolver:  Solving for Uy, Initial residual = 4.10500925e-05, Final residual = 3.57817675e-09, No Iterations 1
smoothSolver:  Solving for Uz, Initial residual = 0.000270683659, Final residual = 2.85110324e-08, No Iterations 1
DICPCG:  Solving for p, Initial residual = 0.000192070674, Final residual = 5.6718722e-06, No Iterations 3
time step continuity errors : sum local = 1.03853111e-09, global = -2.40558726e-20, cumulative = -1.95728857e-16
DICPCG:  Solving for p, Initial residual = 6.26172604e-06, Final residual = 9.50851473e-07, No Iterations 21
time step continuity errors : sum local = 1.95460072e-10, global = -3.27860189e-20, cumulative = -1.95761643e-16
ExecutionTime = 890.42 s  ClockTime = 891 s

Time = 34.99

Courant Number mean: 0.0236718871 max: 0.039516448
smoothSolver:  Solving for Ux, Initial residual = 3.18794743e-05, Final residual = 2.79782418e-09, No Iterations 1
smoothSolver:  Solving for Uy, Initial residual = 4.1092004e-05, Final residual = 3.58028931e-09, No Iterations 1
smoothSolver:  Solving for Uz, Initial residual = 0.000270945334, Final residual = 2.85427229e-08, No Iterations 1
DICPCG:  Solving for p, Initial residual = 0.000192020189, Final residual = 5.71025041e-06, No Iterations 3
time step continuity errors : sum local = 1.04788321e-09, global = -3.30607556e-20, cumulative = -1.95794704e-16
DICPCG:  Solving for p, Initial residual = 6.30847815e-06, Final residual = 8.69875436e-07, No Iterations 14
time step continuity errors : sum local = 1.81477416e-10, global = -1.59546916e-20, cumulative = -1.95810659e-16
ExecutionTime = 890.65 s  ClockTime = 891 s

Time = 34.9925

Courant Number mean: 0.0236719105 max: 0.0395163148
smoothSolver:  Solving for Ux, Initial residual = 3.1913609e-05, Final residual = 2.79976771e-09, No Iterations 1
smoothSolver:  Solving for Uy, Initial residual = 4.11377416e-05, Final residual = 3.58277198e-09, No Iterations 1
smoothSolver:  Solving for Uz, Initial residual = 0.000271208332, Final residual = 2.85753889e-08, No Iterations 1
DICPCG:  Solving for p, Initial residual = 0.000188845353, Final residual = 5.29751133e-06, No Iterations 3
time step continuity errors : sum local = 9.73682983e-10, global = -2.23130135e-20, cumulative = -1.95832972e-16
DICPCG:  Solving for p, Initial residual = 5.85367666e-06, Final residual = 8.40922961e-07, No Iterations 10
time step continuity errors : sum local = 1.76864882e-10, global = -2.55709757e-20, cumulative = -1.95858543e-16
ExecutionTime = 890.87 s  ClockTime = 892 s

Time = 34.995

Courant Number mean: 0.0236719336 max: 0.0395161779
smoothSolver:  Solving for Ux, Initial residual = 3.19480055e-05, Final residual = 2.80206416e-09, No Iterations 1
smoothSolver:  Solving for Uy, Initial residual = 4.11822107e-05, Final residual = 3.58522923e-09, No Iterations 1
smoothSolver:  Solving for Uz, Initial residual = 0.000271469918, Final residual = 2.86070175e-08, No Iterations 1
DICPCG:  Solving for p, Initial residual = 0.000189242256, Final residual = 5.16599538e-06, No Iterations 3
time step continuity errors : sum local = 9.50763611e-10, global = -1.63938336e-20, cumulative = -1.95874937e-16
DICPCG:  Solving for p, Initial residual = 5.72974098e-06, Final residual = 9.3462449e-07, No Iterations 19
time step continuity errors : sum local = 1.92321761e-10, global = -2.08146688e-20, cumulative = -1.95895751e-16
ExecutionTime = 891.11 s  ClockTime = 892 s

Time = 34.9975

Courant Number mean: 0.0236719555 max: 0.0395160377
smoothSolver:  Solving for Ux, Initial residual = 3.19813974e-05, Final residual = 2.80415303e-09, No Iterations 1
smoothSolver:  Solving for Uy, Initial residual = 4.12275124e-05, Final residual = 3.58768085e-09, No Iterations 1
smoothSolver:  Solving for Uz, Initial residual = 0.000271746837, Final residual = 2.86406649e-08, No Iterations 1
DICPCG:  Solving for p, Initial residual = 0.000189509602, Final residual = 5.08621324e-06, No Iterations 3
time step continuity errors : sum local = 9.34025882e-10, global = -2.14047593e-20, cumulative = -1.95917156e-16
DICPCG:  Solving for p, Initial residual = 5.6794353e-06, Final residual = 9.91894643e-07, No Iterations 8
time step continuity errors : sum local = 2.0211383e-10, global = -2.92959206e-20, cumulative = -1.95946452e-16
ExecutionTime = 891.32 s  ClockTime = 892 s

Time = 35

Courant Number mean: 0.0236719764 max: 0.0395158934
smoothSolver:  Solving for Ux, Initial residual = 3.20148558e-05, Final residual = 2.80614752e-09, No Iterations 1
smoothSolver:  Solving for Uy, Initial residual = 4.12688179e-05, Final residual = 3.58961887e-09, No Iterations 1
smoothSolver:  Solving for Uz, Initial residual = 0.000272035767, Final residual = 2.86684676e-08, No Iterations 1
DICPCG:  Solving for p, Initial residual = 0.000189812816, Final residual = 5.49422916e-06, No Iterations 3
time step continuity errors : sum local = 1.00708744e-09, global = -2.63650321e-20, cumulative = -1.95972817e-16
DICPCG:  Solving for p, Initial residual = 6.06867733e-06, Final residual = 8.95265017e-07, No Iterations 14
time step continuity errors : sum local = 1.8502545e-10, global = -2.12852638e-20, cumulative = -1.95994102e-16
ExecutionTime = 893.37 s  ClockTime = 894 s

End

